<?xml version="1.0" encoding="UTF-8"?>

<!-- generated on 06/24/18 02:07:40 by SUMO polyconvert Version 0.30.0
<?xml version="1.0" encoding="UTF-8"?>

<configuration xmlns:xsi="http://www.w3.org/2001/XMLSchema-instance" xsi:noNamespaceSchemaLocation="http://sumo.dlr.de/xsd/polyconvertConfiguration.xsd">

    <input>
        <net-file value="map.net.xml"/>
        <osm-files value="map.osm"/>
        <type-file value="typemap.xml"/>
    </input>

    <output>
        <output-file value="map.poly.xml"/>
    </output>

    <processing>
        <poi-layer-offset value="5"/>
    </processing>

</configuration>
-->

<additional xmlns:xsi="http://www.w3.org/2001/XMLSchema-instance" xsi:noNamespaceSchemaLocation="http://sumo.dlr.de/xsd/additional_file.xsd">
    <location netOffset="-326407.02,-3321818.94" convBoundary="-0.00,-27737.94,8929.16,8595.15" origBoundary="31.199703,29.765951,31.296197,30.093036" projParameter="+proj=utm +zone=36 +ellps=WGS84 +datum=WGS84 +units=m +no_defs"/>

    <poly id="143052808" type="water" color="181,209,209" fill="1" layer="-4.00" shape="3434.45,-6204.16 3263.85,-6132.18 3015.16,-5960.07 2854.61,-5828.20 2780.26,-5612.28 2785.10,-5567.01 2750.63,-5519.07 2608.41,-5473.61 2347.25,-5084.19 2251.30,-4994.10 2141.11,-4887.29 1958.82,-4622.77 1776.57,-4088.29 1711.50,-3778.72 1728.17,-3505.44 1700.54,-3484.40 1694.57,-3439.74 1745.14,-3283.93 1733.57,-3262.11 1750.34,-3211.13 1746.64,-3054.22 1680.20,-2761.40 1620.16,-2758.61 1618.14,-2728.91 1634.75,-2725.87 1657.19,-2713.90 1653.29,-2665.42 1786.42,-2626.80 1799.60,-2578.07 1820.66,-2550.85 1813.65,-2534.77 1748.72,-2483.29 1723.02,-2475.93 1628.01,-2393.59 1589.52,-2334.53 1537.24,-2168.39 1494.32,-1998.78 1435.72,-1773.31 1428.00,-1604.26 1494.74,-1440.49 1535.15,-1371.08 1644.52,-1261.53 1725.29,-1126.83 1815.41,-924.29 1837.92,-807.23 1851.85,-710.63 1829.61,-543.43 1794.79,-386.33 1801.07,-248.42 1771.83,1.28 1739.17,273.38 1731.92,372.87 1749.49,441.49 1782.53,689.07 1785.77,810.24 1787.71,883.06 1793.49,1099.73 1797.39,1244.93 1800.67,1287.31 1817.96,1502.07 1825.84,1607.05 1875.53,1874.01 1968.78,2146.47 2070.31,2433.35 2089.12,2524.47 2834.68,2429.63 2805.22,2301.55 2820.44,2159.67 2854.53,2002.21 2983.26,1691.19 2999.16,1517.06 3003.52,1469.25 3002.52,1316.88 2929.57,969.92 2832.55,551.43 2812.70,409.20 2770.49,187.64 2727.50,-48.57 2660.06,-393.58 2456.83,-1038.41 2486.38,-1145.31 2520.42,-1379.93 2562.99,-1465.67 2593.22,-1601.01 2634.81,-1750.68 2644.47,-1936.29 2640.05,-2136.91 2649.31,-2192.28 2665.48,-2218.07 2683.64,-2221.65 2780.66,-2214.91 2830.88,-2233.82 2853.66,-2260.53 2902.77,-2406.33 2980.78,-2718.23 2994.92,-2928.60 3000.86,-3134.73 3020.93,-3336.96 3021.58,-3402.08 3030.74,-3448.81 3036.15,-3506.84 3055.84,-3519.79 3079.94,-3532.36 3081.00,-3577.72 3050.99,-3589.62 3005.10,-3772.71 2969.76,-3807.61 2955.34,-3829.63 2952.34,-3921.84 3000.77,-3976.12 3043.35,-4058.94 3181.34,-4450.02 3220.09,-4623.72 3278.75,-4849.24 3368.87,-4914.50 3429.73,-4997.86 3602.06,-5239.56 3895.32,-5505.59 4154.19,-5760.99 4330.32,-5993.77 3434.45,-6204.16"/>
    <poly id="151339811" type="farm" color="242,242,204" fill="1" layer="-3.00" shape="931.22,1363.77 934.02,1343.90 950.90,1331.02 975.28,1334.51 988.25,1350.70 984.99,1373.67 968.59,1386.61 945.00,1383.89 931.22,1363.77"/>
    <poly id="180149258" type="amenity" color="237,199,199" fill="1" layer="-1.00" shape="1068.56,1643.42 1101.92,1656.72 1111.09,1659.92 1096.90,1751.70 1096.52,1755.96 1093.31,1791.73 1087.31,1814.27 1084.04,1828.74 1008.44,1807.52 972.44,1799.77 968.12,1799.00 911.27,1783.98 924.43,1731.73 886.81,1721.02 891.66,1705.13 934.07,1716.35 1039.34,1746.02 1068.56,1643.42"/>
    <poly id="180149262" type="farm" color="242,242,204" fill="1" layer="-3.00" shape="1071.36,1695.98 1087.21,1699.02 1081.99,1726.06 1066.13,1723.03 1071.36,1695.98"/>
    <poly id="180149262#1" type="tourism" color="207,245,201" fill="1" layer="-2.00" shape="1071.36,1695.98 1087.21,1699.02 1081.99,1726.06 1066.13,1723.03 1071.36,1695.98"/>
    <poly id="182455994" type="tourism" color="207,245,201" fill="1" layer="-2.00" shape="2346.26,1614.14 2374.34,1602.05 2363.70,1577.59 2335.62,1589.68 2346.26,1614.14"/>
    <poly id="197993403" type="amenity" color="237,199,199" fill="1" layer="-1.00" shape="1001.37,1872.54 1005.88,1857.89 983.32,1850.99 978.80,1865.65 1001.37,1872.54"/>
    <poly id="197993404" type="leisure" color="207,245,201" fill="1" layer="-2.00" shape="466.38,1901.44 479.92,1853.35 498.47,1858.52 484.93,1906.61 466.38,1901.44"/>
    <poly id="205080896" type="farm" color="242,242,204" fill="1" layer="-3.00" shape="1050.06,1746.80 1044.31,1763.23 1054.76,1765.86 1059.71,1749.44 1050.06,1746.80"/>
    <poly id="205080896#1" type="tourism" color="207,245,201" fill="1" layer="-2.00" shape="1050.06,1746.80 1044.31,1763.23 1054.76,1765.86 1059.71,1749.44 1050.06,1746.80"/>
    <poly id="205080897" type="building" color="255,230,230" fill="1" layer="-1.00" shape="932.47,1738.37 946.25,1741.74 956.40,1744.21 960.48,1734.61 962.43,1730.00 950.59,1727.32 936.80,1724.19 932.47,1738.37"/>
    <poly id="205084144" type="building" color="255,230,230" fill="1" layer="-1.00" shape="1003.55,1783.00 1013.92,1785.66 1080.48,1802.70 1092.25,1756.77 1067.92,1746.54 1059.10,1778.18 1045.99,1775.35 1032.33,1772.39 1036.55,1751.99 1021.70,1746.01 1014.70,1768.47 1009.57,1768.80 1003.55,1783.00"/>
    <poly id="205084146" type="building" color="255,230,230" fill="1" layer="-1.00" shape="1009.79,1805.96 972.75,1797.89 978.49,1777.19 1013.66,1791.87 1009.79,1805.96"/>
    <poly id="228633441" type="water" color="181,209,209" fill="0" layer="-4.00" shape="7952.16,-27737.94 8139.76,-27164.25 8376.28,-26842.86 8520.32,-26362.90 8612.16,-25850.74 8533.51,-25472.31 8591.43,-25116.89 8724.33,-24714.67 8756.82,-24616.36 8911.19,-24147.11 8929.16,-23644.45 8809.17,-23213.10 8702.98,-22561.96 8636.12,-22100.01 8508.90,-21448.62 8485.25,-20914.03 8416.07,-20609.23 8389.48,-20273.65 8676.60,-19533.41 8700.40,-18942.64 8643.13,-18077.99 8650.12,-17606.84 8468.80,-17059.63 8224.84,-16480.08 8116.74,-15965.40 7987.45,-15460.91 7826.63,-14955.95 7686.22,-14493.21 7703.47,-14043.30 7786.02,-13447.84 7794.62,-12872.23 7884.24,-12507.21 7953.92,-12068.63 7930.33,-11534.48 7750.89,-10872.44 7592.03,-10242.13 7368.84,-9694.61 7199.50,-9064.21 7017.79,-8559.21 6729.38,-8157.26 6345.58,-7806.18 5845.69,-7484.74 5167.42,-7139.63 4721.42,-6735.28 4348.41,-6373.88 3837.95,-6062.67 3390.76,-5741.96 3222.89,-5287.54 3163.82,-4776.06 2962.00,-4229.02 2625.99,-3523.05 2487.76,-2945.66 2472.24,-2589.83 2626.47,-2132.06 2518.82,-1617.96 2319.19,-935.15 2094.37,-523.86 2005.98,-125.14 1993.58,429.22 1991.20,952.01 2063.81,1567.72 2249.05,1993.47 2601.20,2343.44 2672.25,2471.19 2860.58,2809.83 2961.90,3247.30 2959.97,3801.32 2661.61,4807.68 2602.56,5061.66 2563.86,5354.31 2518.48,5814.84 2462.45,6265.08 2626.93,6711.86 2801.57,7137.58 2945.51,7616.01 3119.97,8031.26 3139.19,8595.15"/>
    <poly id="24744871" type="amenity" color="237,199,199" fill="1" layer="-1.00" shape="1179.82,2000.83 1198.76,1863.30 1008.44,1807.52 972.44,1799.77 968.12,1799.00 911.27,1783.98 920.92,1920.84 1179.82,2000.83"/>
    <poly id="24763819" type="farm" color="242,242,204" fill="1" layer="-3.00" shape="1029.46,1567.15 1029.63,1577.50 1031.84,1586.34 1039.68,1593.91 1049.85,1597.30 1244.50,1654.70 1451.75,1715.82 1463.37,1718.30 1476.45,1718.09 1487.97,1713.47 1532.55,1682.70 1557.66,1665.36 1568.48,1653.67 1575.70,1640.25 1576.34,1624.86 1576.73,1515.73 1523.65,1466.57 1454.81,1458.32 1310.11,1435.36 1236.31,1423.65 1151.22,1410.15 1131.24,1411.25 1116.05,1418.50 1079.41,1472.92 1044.67,1513.39 1040.08,1524.11 1034.34,1537.21 1029.46,1567.15"/>
    <poly id="24763819#1" type="tourism" color="207,245,201" fill="1" layer="-2.00" shape="1029.46,1567.15 1029.63,1577.50 1031.84,1586.34 1039.68,1593.91 1049.85,1597.30 1244.50,1654.70 1451.75,1715.82 1463.37,1718.30 1476.45,1718.09 1487.97,1713.47 1532.55,1682.70 1557.66,1665.36 1568.48,1653.67 1575.70,1640.25 1576.34,1624.86 1576.73,1515.73 1523.65,1466.57 1454.81,1458.32 1310.11,1435.36 1236.31,1423.65 1151.22,1410.15 1131.24,1411.25 1116.05,1418.50 1079.41,1472.92 1044.67,1513.39 1040.08,1524.11 1034.34,1537.21 1029.46,1567.15"/>
    <poly id="24763856" type="water" color="181,209,209" fill="1" layer="-4.00" shape="2945.74,1575.24 2927.38,1692.06 2850.81,1922.89 2798.90,2045.61 2764.65,2186.18 2745.20,2267.21 2732.07,2274.01 2703.64,2256.32 2660.40,2191.10 2422.85,1803.20 2411.52,1784.71 2372.61,1697.95 2342.91,1631.72 2264.49,1483.65 2216.82,1280.49 2181.52,1139.96 2175.89,977.33 2183.29,920.58 2177.42,809.45 2176.75,699.27 2162.45,512.06 2131.17,97.51 2144.00,-74.93 2129.87,-77.67 2134.70,-96.36 2123.09,-109.65 2143.50,-115.12 2132.09,-152.74 2134.29,-211.49 2150.66,-356.96 2158.42,-523.94 2192.04,-625.39 2207.65,-687.44 2267.94,-804.76 2323.39,-900.37 2357.77,-953.44 2377.12,-973.31 2404.10,-969.60 2426.98,-962.75 2446.13,-955.22 2456.59,-922.01 2460.07,-898.38 2471.12,-853.23 2495.39,-771.64 2570.13,-491.00 2648.24,-206.30 2675.84,-27.94 2711.12,164.31 2733.87,253.09 2743.72,291.51 2773.50,450.07 2815.70,661.97 2852.14,822.89 2886.12,985.48 2892.67,1031.17 2952.84,1284.33 2953.47,1504.23 2945.74,1575.24"/>
    <poly id="25006885" type="landuse" color="194,194,130" fill="1" layer="-3.00" shape="345.08,1091.77 550.50,1131.61 638.55,682.63 328.83,622.55 276.14,891.30 380.42,911.53 345.08,1091.77"/>
    <poly id="255528575" type="building" color="255,230,230" fill="1" layer="-1.00" shape="1540.28,1913.17 1542.05,1911.33 1539.56,1908.93 1537.78,1910.76 1540.28,1913.17"/>
    <poly id="255528591" type="landuse" color="194,194,130" fill="1" layer="-3.00" shape="1554.43,1924.93 1545.53,1916.75 1543.17,1918.22 1540.25,1918.95 1537.34,1918.69 1534.67,1917.54 1532.51,1915.58 1531.09,1913.05 1530.56,1910.19 1530.98,1907.32 1532.29,1904.72 1534.37,1902.70 1537.01,1901.42 1539.89,1901.06 1542.85,1901.67 1545.44,1903.21 1547.36,1905.52 1548.41,1908.34 1548.48,1911.33 1547.54,1914.19 1546.52,1915.74 1555.51,1923.95 1558.70,1919.03 1560.48,1913.36 1560.57,1907.43 1558.96,1901.70 1555.78,1896.67 1551.30,1892.74 1545.89,1890.24 1539.98,1889.37 1534.07,1890.21 1527.81,1893.24 1522.90,1898.15 1519.89,1904.40 1519.12,1911.28 1520.67,1918.03 1524.37,1923.90 1529.81,1928.22 1536.38,1930.52 1543.34,1930.54 1549.92,1928.27 1554.43,1924.93"/>
    <poly id="255528596" type="natural" color="140,196,107" fill="1" layer="-4.00" shape="1545.53,1916.75 1540.28,1913.17 1537.78,1910.76 1539.56,1908.93 1542.05,1911.33 1546.52,1915.74 1547.54,1914.19 1548.48,1911.33 1548.41,1908.34 1547.36,1905.52 1545.44,1903.21 1542.85,1901.67 1539.89,1901.06 1537.01,1901.42 1534.37,1902.70 1532.29,1904.72 1530.98,1907.32 1530.56,1910.19 1531.09,1913.05 1532.51,1915.58 1534.67,1917.54 1537.34,1918.69 1540.25,1918.95 1543.17,1918.22 1545.53,1916.75"/>
    <poly id="28800819" type="tourism" color="207,245,201" fill="1" layer="-2.00" shape="1214.62,1360.76 1554.01,1411.18 1586.71,1384.31 1594.23,1123.03 1581.63,951.87 1559.77,578.42 1133.38,580.70 1129.06,642.75 1112.62,876.79 1101.64,969.25 1104.77,969.47 1138.31,971.87 1140.25,977.76 1135.43,1029.97 1148.39,1039.62 1181.01,1034.78 1203.88,1034.42 1240.80,1036.57 1296.98,1042.92 1294.48,1074.88 1293.62,1085.87 1286.11,1092.04 1279.26,1158.04 1247.91,1155.62 1245.48,1172.92 1237.45,1207.55 1229.82,1237.48 1223.97,1266.71 1220.41,1284.03 1214.62,1360.76"/>
    <poly id="28800819#1" type="tourism" color="207,245,201" fill="1" layer="-2.00" shape="1214.62,1360.76 1554.01,1411.18 1586.71,1384.31 1594.23,1123.03 1581.63,951.87 1559.77,578.42 1133.38,580.70 1129.06,642.75 1112.62,876.79 1101.64,969.25 1104.77,969.47 1138.31,971.87 1140.25,977.76 1135.43,1029.97 1148.39,1039.62 1181.01,1034.78 1203.88,1034.42 1240.80,1036.57 1296.98,1042.92 1294.48,1074.88 1293.62,1085.87 1286.11,1092.04 1279.26,1158.04 1247.91,1155.62 1245.48,1172.92 1237.45,1207.55 1229.82,1237.48 1223.97,1266.71 1220.41,1284.03 1214.62,1360.76"/>
    <poly id="28801174" type="amenity" color="237,199,199" fill="1" layer="-1.00" shape="909.84,2188.61 904.17,2160.27 807.93,2136.48 809.97,2127.78 825.22,2063.04 767.53,2041.55 812.13,1886.26 920.92,1920.84 911.27,1783.98 968.12,1799.00 972.44,1799.77 1008.44,1807.52 1084.04,1828.74 1087.31,1814.27 1093.31,1791.73 1096.52,1755.96 1096.90,1751.70 1111.09,1659.92 764.46,1554.09 550.20,1488.70 527.65,1486.60 505.35,1565.52 476.29,1668.44 467.77,1698.60 459.40,1728.23 457.70,1737.80 423.04,1933.08 422.83,1941.07 417.83,2128.41 355.96,2340.24 887.28,2457.10 909.84,2188.61"/>
    <poly id="322870465" type="building" color="255,230,230" fill="1" layer="-1.00" shape="1209.37,1303.17 1202.25,1351.02 1156.93,1345.22 1163.48,1297.70 1209.37,1303.17"/>
    <poly id="322870466" type="building" color="255,230,230" fill="1" layer="-1.00" shape="1205.13,1264.85 1134.82,1287.36 1139.98,1303.24 1184.05,1290.16 1182.68,1285.93 1208.68,1276.90 1205.13,1264.85"/>
    <poly id="322870467" type="building" color="255,230,230" fill="1" layer="-1.00" shape="1139.98,1303.24 1140.88,1306.11 1128.16,1310.08 1121.29,1289.35 1134.16,1285.53 1134.82,1287.36 1139.98,1303.24"/>
    <poly id="322870468" type="building" color="255,230,230" fill="1" layer="-1.00" shape="1209.26,1193.23 1225.41,1197.26 1211.14,1251.30 1196.38,1247.63 1209.26,1193.23"/>
    <poly id="322870469" type="building" color="255,230,230" fill="1" layer="-1.00" shape="1198.63,1185.95 1124.01,1166.03 1115.96,1197.22 1191.39,1217.11 1198.63,1185.95"/>
    <poly id="322870470" type="building" color="255,230,230" fill="1" layer="-1.00" shape="1169.13,1271.23 1151.08,1277.24 1132.15,1218.59 1149.01,1212.70 1169.13,1271.23"/>
    <poly id="322873814" type="building" color="255,230,230" fill="1" layer="-1.00" shape="1133.55,1138.26 1133.48,1141.86 1132.51,1141.82 1131.81,1159.61 1132.67,1159.66 1132.47,1163.64 1149.30,1164.32 1149.43,1160.55 1150.40,1160.61 1151.23,1143.06 1150.42,1143.02 1150.70,1139.08 1133.55,1138.26"/>
    <poly id="322873815" type="building" color="255,230,230" fill="1" layer="-1.00" shape="1117.00,1137.77 1113.73,1183.20 1084.21,1182.54 1087.38,1136.43 1106.31,1137.29 1110.01,1137.45 1117.00,1137.77"/>
    <poly id="322873816" type="amenity" color="237,199,199" fill="1" layer="-1.00" shape="1103.95,1120.40 1107.68,1120.65 1107.39,1124.43 1106.31,1137.29 1110.01,1137.45 1111.10,1124.64 1153.34,1126.21 1153.58,1122.89 1156.82,1123.10 1157.68,1112.48 1154.46,1112.31 1154.70,1108.90 1140.69,1108.28 1141.64,1090.92 1124.23,1090.01 1123.10,1106.87 1108.45,1106.23 1108.22,1109.62 1104.63,1109.40 1103.95,1120.40"/>
    <poly id="322873816#1" type="building" color="255,230,230" fill="1" layer="-1.00" shape="1103.95,1120.40 1107.68,1120.65 1107.39,1124.43 1106.31,1137.29 1110.01,1137.45 1111.10,1124.64 1153.34,1126.21 1153.58,1122.89 1156.82,1123.10 1157.68,1112.48 1154.46,1112.31 1154.70,1108.90 1140.69,1108.28 1141.64,1090.92 1124.23,1090.01 1123.10,1106.87 1108.45,1106.23 1108.22,1109.62 1104.63,1109.40 1103.95,1120.40"/>
    <poly id="322873817" type="building" color="255,230,230" fill="1" layer="-1.00" shape="1104.75,1098.11 1117.90,1098.58 1119.03,1083.27 1141.58,1084.45 1144.05,1056.73 1124.58,1056.01 1123.56,1067.24 1111.94,1066.58 1111.39,1074.90 1106.51,1074.56 1104.75,1098.11"/>
    <poly id="323000174" type="building" color="255,230,230" fill="1" layer="-1.00" shape="1280.94,1074.53 1293.52,1075.52 1295.87,1045.49 1266.71,1043.15 1266.13,1048.98 1283.28,1050.51 1280.94,1074.53"/>
    <poly id="323000175" type="building" color="255,230,230" fill="1" layer="-1.00" shape="1203.86,1112.19 1195.98,1111.46 1195.74,1113.27 1187.85,1112.75 1184.94,1142.01 1193.10,1142.53 1193.00,1144.47 1200.64,1144.99 1203.86,1112.19"/>
    <poly id="323000176" type="building" color="255,230,230" fill="1" layer="-1.00" shape="1210.66,1109.72 1206.79,1147.05 1214.19,1147.83 1213.56,1153.82 1208.82,1153.37 1208.18,1160.03 1221.73,1161.59 1222.34,1156.02 1230.29,1156.76 1234.78,1112.30 1210.66,1109.72"/>
    <poly id="323000177" type="building" color="255,230,230" fill="1" layer="-1.00" shape="1244.92,1083.27 1243.92,1094.39 1238.57,1153.48 1246.14,1154.28 1246.58,1149.64 1276.91,1153.29 1283.65,1087.53 1244.92,1083.27"/>
    <poly id="323000178" type="building" color="255,230,230" fill="1" layer="-1.00" shape="1232.52,1093.34 1243.92,1094.39 1244.92,1083.27 1248.13,1041.65 1197.91,1037.92 1197.82,1039.60 1197.03,1048.33 1235.70,1050.99 1233.23,1083.90 1232.52,1093.34"/>
    <poly id="323000179" type="building" color="255,230,230" fill="1" layer="-1.00" shape="1197.03,1048.33 1194.40,1048.07 1193.70,1055.59 1191.31,1080.97 1233.23,1083.90 1235.70,1050.99 1197.03,1048.33"/>
    <poly id="325002932" type="building" color="255,230,230" fill="1" layer="-1.00" shape="1197.03,1048.33 1194.40,1048.07 1193.70,1055.59 1183.46,1054.90 1183.70,1052.02 1165.84,1051.17 1163.65,1051.06 1163.12,1056.77 1159.47,1059.41 1160.50,1060.65 1159.49,1069.68 1158.02,1070.67 1157.76,1073.18 1159.05,1073.29 1158.16,1083.41 1151.56,1083.08 1149.41,1085.26 1146.12,1082.22 1146.35,1080.54 1147.30,1079.58 1147.92,1075.00 1150.87,1072.95 1151.25,1070.19 1148.39,1069.96 1149.06,1063.12 1147.49,1061.73 1148.25,1054.61 1146.32,1053.30 1147.14,1040.74 1161.90,1041.41 1162.03,1039.32 1184.76,1040.60 1184.56,1042.23 1185.54,1042.34 1185.85,1039.02 1197.82,1039.60 1197.03,1048.33"/>
    <poly id="325002936" type="building" color="255,230,230" fill="1" layer="-1.00" shape="1183.70,1052.02 1183.46,1054.90 1179.76,1092.74 1162.10,1091.65 1165.84,1051.17 1183.70,1052.02"/>
    <poly id="325002939" type="leisure" color="207,245,201" fill="1" layer="-2.00" shape="1281.37,1055.59 1279.61,1074.55 1265.85,1073.76 1267.43,1054.49 1281.37,1055.59"/>
    <poly id="325002942" type="building" color="255,230,230" fill="1" layer="-1.00" shape="1108.23,977.79 1106.56,989.52 1111.39,990.01 1107.81,1017.57 1103.57,1017.11 1102.05,1029.35 1115.05,1031.03 1116.08,1023.80 1129.18,1025.21 1133.54,989.16 1125.31,988.39 1126.53,979.72 1122.07,979.20 1122.22,977.83 1118.77,977.48 1118.62,978.89 1108.23,977.79"/>
    <poly id="325002945" type="unknown" color="51,128,255" fill="1" layer="-1.00" shape="1154.95,1157.69 1152.66,1158.61 1155.19,1165.32 1157.48,1164.40 1158.98,1167.54 1160.67,1168.89 1163.02,1169.30 1165.21,1169.01 1166.90,1167.86 1168.09,1166.18 1168.59,1164.16 1168.54,1162.28 1165.22,1154.55 1163.68,1152.72 1161.45,1151.82 1159.00,1151.67 1156.81,1152.78 1155.32,1154.37 1154.90,1155.78 1154.95,1157.69"/>
    <poly id="325002948" type="amenity" color="237,199,199" fill="1" layer="-1.00" shape="1223.63,1189.52 1220.55,1187.46 1216.45,1188.18 1215.88,1184.12 1212.62,1181.69 1214.73,1178.79 1214.08,1174.60 1218.38,1173.95 1220.50,1171.23 1223.37,1173.09 1227.68,1172.74 1228.23,1176.58 1231.50,1178.87 1228.96,1182.34 1229.65,1185.97 1225.89,1186.50 1223.63,1189.52"/>
    <poly id="325002948#1" type="building" color="255,230,230" fill="1" layer="-1.00" shape="1223.63,1189.52 1220.55,1187.46 1216.45,1188.18 1215.88,1184.12 1212.62,1181.69 1214.73,1178.79 1214.08,1174.60 1218.38,1173.95 1220.50,1171.23 1223.37,1173.09 1227.68,1172.74 1228.23,1176.58 1231.50,1178.87 1228.96,1182.34 1229.65,1185.97 1225.89,1186.50 1223.63,1189.52"/>
    <poly id="325002950" type="amenity" color="237,199,199" fill="1" layer="-1.00" shape="1156.48,1037.55 1181.01,1034.78 1203.88,1034.42 1240.80,1036.57 1296.98,1042.92 1294.48,1074.88 1293.62,1085.87 1286.11,1092.04 1279.26,1158.04 1247.91,1155.62 1245.48,1172.92 1237.45,1207.55 1229.82,1237.48 1223.97,1266.71 1220.41,1284.03 1218.92,1304.21 1214.62,1360.76 1200.36,1359.26 1157.47,1353.87 1145.97,1351.04 1139.09,1345.13 1131.51,1330.34 1124.94,1311.85 1116.73,1291.02 1087.42,1223.84 1083.67,1213.20 1083.09,1197.92 1084.21,1182.54 1087.38,1136.43 1088.29,1126.50 1091.48,1100.64 1092.91,1094.50 1105.40,1074.61 1114.60,1062.57 1124.54,1053.41 1131.10,1047.20 1148.39,1039.62 1156.48,1037.55"/>
    <poly id="325002954" type="amenity" color="237,199,199" fill="1" layer="-1.00" shape="1104.77,969.47 1102.56,990.57 1098.79,1031.91 1098.20,1042.07 1100.52,1046.31 1106.70,1048.26 1114.17,1046.10 1122.80,1040.53 1131.42,1035.48 1135.43,1029.97 1139.88,986.59 1140.25,977.76 1138.31,971.87 1104.77,969.47"/>
    <poly id="325002958" type="landuse" color="194,194,130" fill="1" layer="-3.00" shape="1112.84,1236.75 1112.29,1234.05 1113.15,1231.51 1114.53,1229.47 1116.76,1227.99 1119.40,1227.72 1122.05,1228.12 1123.93,1229.33 1125.48,1231.51 1137.88,1268.41 1138.05,1270.67 1137.21,1273.12 1135.81,1275.34 1133.51,1276.55 1130.74,1276.68 1128.37,1275.70 1126.19,1274.41 1124.53,1272.09 1112.84,1236.75"/>
    <poly id="325016413" type="amenity" color="237,199,199" fill="1" layer="-1.00" shape="943.53,1003.89 920.92,1154.77 1045.07,1172.19 1046.58,1158.48 1050.64,1121.50 1053.87,1092.05 1060.64,1030.48 1062.29,1015.41 943.53,1003.89"/>
    <poly id="325016414" type="building" color="255,230,230" fill="1" layer="-1.00" shape="949.07,1007.82 942.56,1052.30 952.35,1053.87 952.66,1052.59 979.10,1056.59 978.86,1057.96 988.10,1059.42 994.90,1014.13 949.07,1007.82"/>
    <poly id="325016418" type="building" color="255,230,230" fill="1" layer="-1.00" shape="1005.52,1016.35 1057.67,1023.93 1057.17,1028.00 1059.19,1028.23 1057.11,1043.32 1054.54,1043.02 1051.92,1060.83 1049.02,1060.43 1048.35,1064.36 1032.62,1062.40 1032.31,1064.61 1019.10,1063.12 1019.45,1060.74 1003.19,1058.61 1003.80,1054.22 1000.05,1053.74 1003.00,1036.02 1000.28,1035.55 1002.94,1020.40 1004.82,1020.70 1005.52,1016.35"/>
    <poly id="325016420" type="building" color="255,230,230" fill="1" layer="-1.00" shape="936.35,1075.96 949.52,1077.80 950.13,1073.20 976.81,1076.86 976.21,1081.12 986.98,1082.13 985.03,1099.31 983.40,1099.15 975.92,1150.59 959.85,1148.47 966.72,1096.89 951.83,1094.91 946.24,1132.55 961.61,1134.61 960.90,1139.41 945.46,1137.13 944.14,1145.92 927.58,1143.38 935.18,1092.86 934.05,1092.64 936.35,1075.96"/>
    <poly id="325016423" type="building" color="255,230,230" fill="1" layer="-1.00" shape="983.47,1142.62 980.97,1157.87 1008.69,1162.51 1010.66,1150.96 1002.99,1149.53 1003.53,1145.81 983.47,1142.62"/>
    <poly id="325018369" type="building" color="255,230,230" fill="1" layer="-1.00" shape="1013.94,1164.99 1034.03,1167.70 1035.55,1157.01 1034.26,1156.86 1034.91,1151.78 1023.55,1150.09 1023.66,1149.05 1016.40,1148.01 1013.94,1164.99"/>
    <poly id="325018370" type="building" color="255,230,230" fill="1" layer="-1.00" shape="1034.26,1156.86 1035.55,1157.01 1046.58,1158.48 1050.64,1121.50 1040.09,1120.14 1038.90,1127.90 1023.81,1125.53 1020.51,1144.29 1035.52,1146.43 1034.91,1151.78 1034.26,1156.86"/>
    <poly id="325018371" type="building" color="255,230,230" fill="1" layer="-1.00" shape="1050.64,1121.50 1053.87,1092.05 1048.81,1091.27 1049.13,1089.61 1045.00,1089.01 1044.89,1090.62 1036.92,1089.41 1035.71,1097.64 1034.07,1097.36 1032.25,1109.15 1041.21,1110.37 1040.09,1120.14 1050.64,1121.50"/>
    <poly id="325018372" type="building" color="255,230,230" fill="1" layer="-1.00" shape="1026.20,1112.00 1023.81,1125.53 1020.51,1144.29 1020.01,1147.12 1003.81,1144.66 1004.97,1137.45 1007.82,1119.66 1009.47,1109.43 1026.20,1112.00"/>
    <poly id="325018373" type="building" color="255,230,230" fill="1" layer="-1.00" shape="1004.97,1137.45 1000.39,1136.88 999.85,1140.59 990.32,1139.25 994.92,1109.90 1004.15,1111.39 1002.78,1118.80 1007.82,1119.66 1004.97,1137.45"/>
    <poly id="325018374" type="building" color="255,230,230" fill="1" layer="-1.00" shape="1022.54,1099.27 1004.96,1096.59 1004.14,1101.49 995.65,1100.24 999.17,1078.61 1025.10,1082.52 1022.54,1099.27"/>
    <poly id="325049693" type="water" color="181,209,209" fill="1" layer="-4.00" shape="1291.38,1499.19 1289.40,1514.90 1282.44,1531.03 1271.03,1543.78 1253.69,1548.81 1236.56,1544.32 1224.49,1537.04 1212.04,1526.70 1204.37,1516.63 1196.04,1507.58 1182.61,1500.32 1173.72,1499.11 1165.42,1492.79 1164.95,1484.29 1171.67,1477.40 1183.87,1471.43 1198.81,1466.44 1212.53,1470.30 1226.25,1474.84 1235.77,1485.66 1238.19,1495.39 1241.09,1506.20 1247.05,1516.99 1255.01,1523.65 1265.27,1524.51 1273.17,1522.99 1281.79,1513.09 1285.14,1498.99 1284.67,1488.21 1284.36,1479.03 1289.11,1477.59 1292.94,1481.96 1290.99,1488.10 1291.38,1499.19"/>
    <poly id="325049694" type="unknown" color="51,128,255" fill="1" layer="-1.00" shape="1223.28,1500.57 1221.65,1494.49 1217.26,1486.74 1207.28,1481.63 1194.07,1477.59 1182.66,1479.47 1177.61,1484.14 1178.87,1488.20 1184.76,1493.54 1194.18,1495.60 1201.70,1495.48 1208.22,1498.27 1212.71,1501.43 1217.87,1504.06 1221.10,1502.99 1223.28,1500.57"/>
    <poly id="325049699" type="amenity" color="237,199,199" fill="1" layer="-1.00" shape="1249.65,1470.72 1249.13,1473.20 1246.16,1471.23 1242.90,1471.28 1239.56,1474.12 1240.08,1478.37 1242.82,1480.58 1242.64,1483.26 1244.36,1485.48 1246.87,1487.57 1249.47,1487.42 1253.78,1490.26 1256.59,1489.65 1258.90,1485.93 1258.06,1482.24 1260.85,1481.64 1260.43,1476.16 1254.95,1470.97 1249.65,1470.72"/>
    <poly id="325049699#1" type="building" color="255,230,230" fill="1" layer="-1.00" shape="1249.65,1470.72 1249.13,1473.20 1246.16,1471.23 1242.90,1471.28 1239.56,1474.12 1240.08,1478.37 1242.82,1480.58 1242.64,1483.26 1244.36,1485.48 1246.87,1487.57 1249.47,1487.42 1253.78,1490.26 1256.59,1489.65 1258.90,1485.93 1258.06,1482.24 1260.85,1481.64 1260.43,1476.16 1254.95,1470.97 1249.65,1470.72"/>
    <poly id="325052165" type="building" color="255,230,230" fill="1" layer="-1.00" shape="1336.33,1488.27 1340.66,1487.27 1345.02,1487.45 1349.99,1489.16 1352.41,1485.30 1347.84,1482.23 1341.77,1481.73 1336.83,1482.74 1334.03,1483.97 1336.33,1488.27"/>
    <poly id="359177531" type="amenity" color="237,199,199" fill="1" layer="-1.00" shape="920.92,1154.77 1045.07,1172.19 1025.04,1323.42 1019.10,1323.51 1015.29,1326.82 1013.88,1331.58 1004.40,1397.14 1004.97,1401.79 1009.31,1405.84 1012.70,1407.46 992.22,1550.26 988.33,1561.07 981.67,1567.23 972.71,1570.74 963.27,1571.78 952.86,1569.26 155.72,1341.79 151.87,1336.19 182.10,1181.31 197.04,1184.66 213.31,1134.65 210.16,1133.79 222.65,1093.30 554.48,1148.75 553.42,1154.35 913.43,1206.93 920.92,1154.77"/>
    <poly id="372437313" type="building" color="255,230,230" fill="1" layer="-1.00" shape="836.76,1294.98 884.29,1301.25 886.27,1285.46 839.09,1279.00 836.76,1294.98"/>
    <poly id="38285538" type="parking" color="184,184,179" fill="1" layer="-1.00" shape="1088.96,1278.32 1103.39,1273.22 1131.84,1341.74 1111.75,1338.47 1099.53,1335.08 1093.54,1326.88 1091.18,1319.29 1088.96,1278.32"/>
    <poly id="38286748" type="building" color="255,230,230" fill="1" layer="-1.00" shape="669.86,1564.34 677.96,1537.44 728.23,1552.43 720.12,1579.33 669.86,1564.34"/>
    <poly id="38286749" type="amenity" color="237,199,199" fill="1" layer="-1.00" shape="716.72,1605.61 713.22,1602.87 717.82,1597.05 697.27,1580.92 692.34,1587.14 681.98,1579.01 670.53,1593.46 680.58,1601.35 674.53,1608.97 695.03,1625.05 701.35,1617.08 705.23,1620.12 716.72,1605.61"/>
    <poly id="38286749#1" type="building" color="255,230,230" fill="1" layer="-1.00" shape="716.72,1605.61 713.22,1602.87 717.82,1597.05 697.27,1580.92 692.34,1587.14 681.98,1579.01 670.53,1593.46 680.58,1601.35 674.53,1608.97 695.03,1625.05 701.35,1617.08 705.23,1620.12 716.72,1605.61"/>
    <poly id="38286750" type="amenity" color="237,199,199" fill="1" layer="-1.00" shape="646.48,1666.01 652.57,1643.93 713.55,1660.58 707.46,1682.66 646.48,1666.01"/>
    <poly id="38286750#1" type="building" color="255,230,230" fill="1" layer="-1.00" shape="646.48,1666.01 652.57,1643.93 713.55,1660.58 707.46,1682.66 646.48,1666.01"/>
    <poly id="38286751" type="building" color="255,230,230" fill="1" layer="-1.00" shape="812.50,1673.05 780.68,1663.82 799.37,1599.92 831.21,1609.13 812.50,1673.05"/>
    <poly id="38286752" type="building" color="255,230,230" fill="1" layer="-1.00" shape="774.51,1774.62 782.59,1740.11 801.72,1744.55 805.03,1730.41 785.89,1725.98 764.14,1720.94 749.80,1782.19 771.55,1787.22 792.01,1791.96 794.97,1779.35 774.51,1774.62"/>
    <poly id="38286753" type="building" color="255,230,230" fill="1" layer="-1.00" shape="654.50,1707.72 632.32,1699.73 637.12,1686.54 679.40,1701.75 659.96,1755.21 618.17,1740.17 622.39,1728.57 644.08,1736.38 654.50,1707.72"/>
    <poly id="38286755" type="building" color="255,230,230" fill="1" layer="-1.00" shape="790.54,1832.11 789.14,1843.80 770.76,1841.63 769.39,1853.01 788.11,1855.23 784.92,1881.88 799.50,1883.61 811.12,1786.78 797.18,1785.13 795.58,1798.41 755.90,1793.70 754.51,1805.31 794.28,1810.03 793.04,1820.36 762.35,1816.71 760.93,1828.61 790.54,1832.11"/>
    <poly id="38286756" type="building" color="255,230,230" fill="1" layer="-1.00" shape="741.03,1879.58 715.73,1872.54 713.56,1880.25 738.52,1887.18 737.16,1892.02 745.26,1894.26 746.67,1889.21 770.53,1895.85 772.67,1888.25 749.19,1881.71 756.68,1855.07 748.56,1852.82 741.03,1879.58"/>
    <poly id="38286757" type="building" color="255,230,230" fill="1" layer="-1.00" shape="712.19,1903.98 737.72,1910.60 739.77,1902.76 714.62,1896.25 715.87,1891.49 707.73,1889.37 706.38,1894.51 682.49,1888.31 680.43,1896.13 703.95,1902.24 697.00,1928.77 705.14,1930.88 712.19,1903.98"/>
    <poly id="38286758" type="building" color="255,230,230" fill="1" layer="-1.00" shape="644.12,1885.54 669.64,1892.16 671.70,1884.33 646.56,1877.81 647.80,1873.04 639.67,1870.94 638.32,1876.06 614.42,1869.86 612.37,1877.69 635.88,1883.78 628.93,1910.32 637.07,1912.43 644.12,1885.54"/>
    <poly id="38286759" type="building" color="255,230,230" fill="1" layer="-1.00" shape="618.40,1845.81 593.00,1838.70 590.80,1846.48 615.82,1853.49 614.47,1858.23 622.57,1860.49 624.01,1855.40 647.79,1862.05 650.00,1854.26 626.59,1847.71 634.06,1821.32 625.97,1819.05 618.40,1845.81"/>