<?xml version="1.0" encoding="UTF-8"?>

<!-- generated on 06/24/18 02:11:33 by SUMO duarouter Version 0.30.0
<?xml version="1.0" encoding="UTF-8"?>

<configuration xmlns:xsi="http://www.w3.org/2001/XMLSchema-instance" xsi:noNamespaceSchemaLocation="http://sumo.dlr.de/xsd/duarouterConfiguration.xsd">

    <input>
        <net-file value="map.net.xml"/>
        <trip-files value="trips.trips.xml"/>
    </input>

    <output>
        <output-file value="map.rou.xml"/>
    </output>

    <processing>
        <ignore-errors value="true"/>
    </processing>

    <time>
        <begin value="0"/>
        <end value="100.0"/>
    </time>

    <report>
        <no-warnings value="true"/>
        <no-step-log value="true"/>
    </report>

</configuration>
-->

<routes xmlns:xsi="http://www.w3.org/2001/XMLSchema-instance" xsi:noNamespaceSchemaLocation="http://sumo.dlr.de/xsd/routes_file.xsd">
    <vehicle id="0" depart="0.00">
        <route edges="28856969#0 28856969#1 -28856981#0 361945591 54733120#0 54733120#1 54733120#2 54733120#3 54733120#4 54733120#5 54733120#6 54733120#7 54733120#8 174532759#0 174532759#1 174532759#2 174532759#3 174532759#4 38284619#0 38284619#1 38284619#2 38284619#3 38284619#4 39887293#0"/>
    </vehicle>
    <vehicle id="1" depart="1.00">
        <route edges="153834046#5 153834046#6 153834046#7 556525473 24764157#5 34888545#0 34888545#1 34888306"/>
    </vehicle>
    <vehicle id="2" depart="2.00">
        <route edges="-30082378#0 30082378#0 32501920#2 -32501674#1 32506890"/>
    </vehicle>
    <vehicle id="3" depart="3.00">
        <route edges="28856894#1 -28856981#2 -28856981#1 -28856981#0 361945591 54733120#0 54733120#1 54733120#2 54733120#3 54733120#4 54733120#5 54733120#6 54733120#7 54733120#8 174532759#0 174532759#1 174532759#2 174532759#3 174532759#4 38284619#0 38284619#1 38284619#2 38284619#3 -38284619#3"/>
    </vehicle>
    <vehicle id="5" depart="5.00">
        <route edges="361945593 -361945593 50219737#3 50219737#4 50219737#5 24764157#7 24764150#0 24764150#1 24764150#2 24764150#3 24764150#4 24764150#5 54733134#0 54733134#1 38285531#1 38284647#6 38284647#7 28856632#0 28856632#1 28856632#2 28856632#3 28856632#4 28856632#5"/>
    </vehicle>
    <vehicle id="10" depart="10.00">
        <route edges="34888301 30066013#5 30066013#6 24764157#2 24764157#3 24764157#4 24764157#5 34888545#0 34888545#1 34888545#2 34888545#3 34888545#4 34888545#5"/>
    </vehicle>
    <vehicle id="11" depart="11.00">
        <route edges="28856868#0 28856981#5"/>
    </vehicle>
    <vehicle id="13" depart="13.00">
        <route edges="52739219 38427387 24764157#4 24764157#5 24764157#6 24764157#7 24764150#0 24764150#1 24764150#2 24764150#3 24764150#4 24764150#5 54733134#0 54733134#1 38285531#1 38285531#2 54733120#4 54733120#5 54733120#6 54733120#7 54733120#8 174532759#0 174532759#1 174532759#2 174532759#3 174532759#4 38284619#0 38284619#1 38284619#2 38284619#3 38284619#4 38284619#5 38284619#6 -29420059#0"/>
    </vehicle>
    <vehicle id="14" depart="14.00">
        <route edges="28856632#3 28856894#0 28856776#4 50069750#0 28856893#0 28856893#1 50219737#2 50219737#3 50219737#4 50219737#5 24764157#7 24764157#8 24764157#9 24764157#0 24893934#0 -54920273 30066013#3 30066013#4 30066013#5"/>
    </vehicle>
    <vehicle id="15" depart="15.00">
        <route edges="46970355 -46970355 46970334#1 46970334#2 -32502142#5 -32502142#4 -32502142#3 -32502142#2 -32502142#1 233125812#0"/>
    </vehicle>
    <vehicle id="16" depart="16.00">
        <route edges="28856981#3 28856893#1 50219737#2 361945593 34888545#5 34888545#6 34888545#7"/>
    </vehicle>
    <vehicle id="18" depart="18.00">
        <route edges="50069750#2 28856797#0 28856797#1 50069750#0 28856893#0 -28856981#3 -28856981#2 -28856981#1 -28856981#0 361945591 54733120#0 54733120#1 54733120#2 54733120#3 54733120#4 54733120#5 54733120#6 54733120#7"/>
    </vehicle>
    <vehicle id="21" depart="21.00">
        <route edges="28856969#1 -28856981#0 361945591 54733120#0 54733120#1 50220395#5 38284647#7 38284647#8 33823677 50219737#5 24764157#7 24764157#8 24764157#9 24764157#0 24764157#1 24764157#2 556525474 153834046#7 153834046#8"/>
    </vehicle>
    <vehicle id="22" depart="22.00">
        <route edges="-28856952#1 28856952#1 -28856981#1 -28856981#0 361945591 54733120#0 54733120#1 54733120#2 54733120#3 54733120#4 54733120#5 54733120#6 54733120#7 54733120#8 174532759#0 174532759#1 174532759#2"/>
    </vehicle>
    <vehicle id="23" depart="23.00">
        <route edges="-39887293#0 -38284619#4 -38284619#3 32502142#0 32502142#1 32502142#2"/>
    </vehicle>
    <vehicle id="27" depart="27.00">
        <route edges="38285530#2 38285530#3 38285530#4 28797826#0 28797826#1 510256973 38285536#4 38285536#5 38285536#6 54733134#0 54733134#1 38285531#1 38284647#6 38284647#7 28856632#0 28856632#1 28856632#2 28856632#3 28856632#4 28856632#5"/>
    </vehicle>
    <vehicle id="28" depart="28.00">
        <route edges="34888236 30066013#3 30066013#4 30066013#5 30066013#6 24764157#2 24764157#3 24764157#4 24764157#5 24764157#6 24764157#7 24764150#0 24764150#1 24764150#2 24764150#3 24764150#4 24764150#5 54733134#0 54733134#1 38285531#1 38285531#2 54733120#4 54733120#5 54733120#6 54733120#7 54733120#8 174532759#0 174532759#1 -233125838#4 -233125838#3 -233125838#2 -233125838#1 -233125838#0 32502142#5 -46970334#2"/>
    </vehicle>
    <vehicle id="29" depart="29.00">
        <route edges="-32501710 50220395#4 54733120#2 54733120#3 54733120#4 54733120#5 54733120#6 54733120#7 54733120#8 174532759#0 174532759#1 174532759#2 174532759#3 174532759#4 38284619#0 38284619#1 38284619#2 38284619#3 38284619#4 38284619#5 -46970283"/>
    </vehicle>
    <vehicle id="31" depart="31.00">
        <route edges="-28856969#0 28856632#2 28856632#3 28856894#0 28856776#4 50069750#0 28856893#0 28856893#1 50219737#2 361945593 45415943 5096296#6 34888409"/>
    </vehicle>
    <vehicle id="32" depart="32.00">
        <route edges="30066013#0 30066013#1 30066013#2 30066013#3 30066013#4 30066013#5 30066013#6 24764157#2 24764157#3 24764157#4 24764157#5 24764157#6 24764157#7 24764150#0 24764150#1 24764150#2 24764150#3 24764150#4 24764150#5 54733134#0 54733134#1 38285531#1 38285531#2 54733120#4 54733120#5 54733120#6 54733120#7 -32502011#7 -32502011#6 -32502011#5 -32502011#4 -32502011#3 -32502011#2 -32502011#1 -32502011#0"/>
    </vehicle>
    <vehicle id="35" depart="35.00">
        <route edges="28856969#1 -28856981#0 361945591 54733120#0 54733120#1 54733120#2 54733120#3 54733120#4 38285530#0 38285530#1 38285530#2 38285530#3 38285530#4 28797826#0 28797826#1 28797826#2"/>
    </vehicle>
    <vehicle id="37" depart="37.00">
        <route edges="361945591 28856776#0 28856776#1 28856969#1 28856981#1"/>
    </vehicle>
    <vehicle id="38" depart="38.00">
        <route edges="153834046#0 -41193583 30066013#1 30066013#2 30066013#3 30066013#4 30066013#5 30066013#6 24764157#2 24764157#3 24764157#4 24764157#5 24764157#6 24764157#7 24764150#0 24764150#1 24764150#2 24764150#3 24764150#4 24764150#5 54733134#0 54733134#1 38285531#1 38285531#2 54733120#4 54733120#5 54733120#6 54733120#7 -32502011#7 -32502011#6 -32502011#5 32502011#5"/>
    </vehicle>
    <vehicle id="40" depart="40.00">
        <route edges="38285530#4 28797826#0 28797826#1 510256973 38285536#4 38285536#5 510256970#0 510256970#1 24764146#0 24764146#1 24764146#2 -54731751 24764150#1 24764150#2"/>
    </vehicle>
    <vehicle id="41" depart="41.00">
        <route edges="46970355 -32502011#4 -32502011#3 -32502011#2 -32502011#1 32502011#1"/>
    </vehicle>
    <vehicle id="43" depart="43.00">
        <route edges="-30082378#0 50220395#2 50220395#3 50220395#4 50220395#5 38284647#7 38284647#8 33823677 50219737#5 24764157#7 24764157#8 24764157#9 24764157#0 24893934#0"/>
    </vehicle>
    <vehicle id="44" depart="44.00">
        <route edges="38285530#3 38285530#4 28797826#0 28797826#1 510256973 38285536#4 38285536#5 38285536#6 54733134#0 54733134#1 38285531#1 38285531#2 54733120#4 54733120#5 54733120#6 54733120#7 54733120#8 174532759#0 174532759#1 -233125838#4 -233125838#3 -233125838#2 -233125838#1 -233125838#0 -32502142#4 -32502142#3 -32502142#2 -32502142#1"/>
    </vehicle>
    <vehicle id="48" depart="48.00">
        <route edges="-233125798#1 -233125856#3 -233125856#2 233125813#2 -32502142#1 -32502142#0 38284619#3 38284619#4 38284619#5 38284619#6 -29420059#0"/>
    </vehicle>
    <vehicle id="50" depart="50.00">
        <route edges="46970354 -46970334#1 -46970334#0 -39887293#0 38284619#5 38284619#6 29420059#1"/>
    </vehicle>
    <vehicle id="53" depart="53.00">
        <route edges="233125859#1 -233125859#1 -233125812#1 -233125812#0 -32502142#0 38284619#3 38284619#4 38284619#5 38284619#6 -29420059#0"/>
    </vehicle>
    <vehicle id="54" depart="54.00">
        <route edges="361945591 54733120#0 54733120#1 50220395#5 38284647#7 38284647#8 33823677 50219737#5 24764157#7 24764157#8 24764157#9 24764157#0 24764157#1 24764157#2 556525474 153834046#7 153834046#8 5096296#0 5096296#1 5096296#2 5096296#3 33823689"/>
    </vehicle>
    <vehicle id="55" depart="55.00">
        <route edges="50220395#2 32501665#0 32501920#1 32501920#2 32501920#3 32501920#4 32501926 -32501945"/>
    </vehicle>
    <vehicle id="56" depart="56.00">
        <route edges="-46970283 32502011#3 32502011#4 -46970355 46970334#1 46970334#2 -32502142#5 233125838#0 233125838#1 233125838#2 -233125838#2"/>
    </vehicle>
    <vehicle id="57" depart="57.00">
        <route edges="54733120#5 54733120#6 54733120#7 -32502011#7 -32502011#6 -32502011#5 -32502011#4 -32502011#3 -32502011#2 -32502011#1 32502011#1"/>
    </vehicle>
    <vehicle id="58" depart="58.00">
        <route edges="-233125856#3 233125856#3 233125856#4 -233125838#2 -233125838#1 -233125838#0 32502142#5 -46970334#2 -46970334#1 46970355 -32502011#4"/>
    </vehicle>
    <vehicle id="59" depart="59.00">
        <route edges="-28856981#5 -28856981#4 28856893#1 50219737#2 50219737#3 50219737#4 50219737#5 24764157#7 24764150#0 24764150#1 24764150#2 24764150#3 24764150#4 24764150#5 54733134#0 54733134#1 38285531#1"/>
    </vehicle>
    <vehicle id="62" depart="62.00">
        <route edges="28856776#3 28856894#1 -28856981#2 -28856981#1 -28856981#0 361945591 54733120#0 54733120#1 54733120#2 54733120#3 54733120#4 54733120#5 54733120#6 54733120#7 54733120#8 174532759#0 174532759#1 174532759#2 174532759#3 -233125812#2 -233125812#1 233125812#1"/>
    </vehicle>
    <vehicle id="66" depart="66.00">
        <route edges="556525473 24764157#5 24764157#6 24764157#7 24764150#0 24764150#1 24764150#2 24764150#3 24764150#4 24764150#5 54733134#0 54733134#1 38285531#1 38284647#6 38284647#7 28856632#0 28856632#1 28856632#2 28856632#3 28856894#0 28856776#4 50069750#0 50069750#1 50069750#2 28856797#0"/>
    </vehicle>
    <vehicle id="68" depart="68.00">
        <route edges="30066013#3 30066013#4 30066013#5 30066013#6 24764157#2 24764157#3 24764157#4 24764157#5 24764157#6 24764157#7 24764150#0 24764150#1 24764150#2 24764150#3 24764150#4 24764150#5 54733134#0 54733134#1 38285531#1 38285531#2 54733120#4 54733120#5 54733120#6 54733120#7 54733120#8 174532759#0 174532759#1 174532759#2 174532759#3 174532759#4 174532759#5"/>
    </vehicle>
    <vehicle id="69" depart="69.00">
        <route edges="34888301 30066013#5 30066013#6 24764157#2 24764157#3 24764157#4 24764157#5 24764157#6 24764157#7 24764150#0 24764150#1 24764150#2 24764150#3 24764150#4 24764150#5 54733134#0 54733134#1 38285531#1 38285531#2 54733120#4 54733120#5 54733120#6 54733120#7 54733120#8 174532759#0 174532759#1 -233125838#4 233125838#4"/>
    </vehicle>
    <vehicle id="71" depart="71.00">
        <route edges="32501674#1 -32501674#1 -32501674#0 50220395#1 50220395#2 50220395#3 50220395#4 50220395#5 38284647#7 38284647#8 33823677 50219737#5 24764157#7 24764157#8 24764157#9 24764157#0 24764157#1 24764157#2 556525474 153834046#7 153834046#8 5096296#0 5096296#1 5096296#2 5096296#3 5096296#4 5096296#5 5096296#6 5096296#7 45416055"/>
    </vehicle>
    <vehicle id="72" depart="72.00">
        <route edges="34888245 30066013#6 24764157#2 24764157#3 24764157#4 24764157#5 24764157#6 24764157#7 24764150#0 24764150#1 24764150#2 24764150#3 24764150#4 24764150#5 54733134#0 54733134#1 38285531#1 38285531#2 54733120#4 54733120#5 54733120#6 54733120#7 54733120#8 174532759#0 174532759#1 -233125838#4 -233125838#3 -233125838#2 -233125838#1 -233125838#0 32502142#5 -46970334#2 -46970334#1 -46970334#0"/>
    </vehicle>
    <vehicle id="73" depart="73.00">
        <route edges="28971023 38284647#2 39887297 54733120#6 54733120#7 54733120#8 174532759#0 174532759#1 -233125838#4 233125838#4"/>
    </vehicle>
    <vehicle id="76" depart="76.00">
        <route edges="34888330 34888545#4 -361945593 50219737#3 50219737#4 50219737#5 24764157#7 24764150#0 24764150#1 24764150#2 24764150#3 24764150#4 24764150#5 54733134#0 54733134#1 38285531#1 38285531#2 54733120#4 54733120#5 54733120#6 54733120#7 54733120#8 174532759#0 174532759#1 174532759#2 174532759#3 -233125812#2 -233125812#1"/>
    </vehicle>
    <vehicle id="77" depart="77.00">
        <route edges="46970354 -46970334#1 -46970334#0 -39887293#0 38284619#5 38284619#6 -29420059#0"/>
    </vehicle>
    <vehicle id="78" depart="78.00">
        <route edges="-30082378#0 50220395#2 50220395#3 50220395#4 54733120#2 54733120#3 54733120#4 38285530#0 38285530#1 38285530#2 38285530#3 38285530#4 28797826#0 28797826#1 28797826#2 28797826#3 28797826#4 28797826#5 28797826#6"/>
    </vehicle>
    <vehicle id="83" depart="83.00">
        <route edges="-32501665#0 50220395#3 50220395#4 50220395#5 38284647#7 38284647#8 33823677 50219737#5 24764157#7 24764157#8 24764157#9 24764157#0 24893934#0 -54920273 30066013#3 41194045 153834046#4"/>
    </vehicle>
    <vehicle id="84" depart="84.00">
        <route edges="50220395#1 50220395#2 50220395#3 50220395#4 54733120#2 54733120#3 54733120#4 54733120#5 54733120#6 54733120#7 -32502011#7 -32502011#6 -32502011#5 -32502011#4 -32502011#3 -32502011#2 -29420059#2 -48981689#2 -48981689#1"/>
    </vehicle>
    <vehicle id="88" depart="88.00">
        <route edges="24764150#2 24764150#3 24764150#4 510256968 510256970#1 24764146#0 24764146#1 24764146#2 24764146#3 24764157#9 24764157#0 24893934#0 -54920273 30066013#3 41194045 153834046#4 153834046#5 153834046#6"/>
    </vehicle>
    <vehicle id="91" depart="91.00">
        <route edges="32501665#0 -32501665#0 50220395#3 50220395#4 54733120#2 54733120#3 54733120#4 38285530#0 38285530#1 38285530#2 38285530#3 38285530#4 28797826#0 28797826#1 510256973 38285536#4 38285536#5 38285536#6 54733134#0 54733134#1"/>
    </vehicle>
    <vehicle id="94" depart="94.00">
        <route edges="50069750#0 28856893#0 28856893#1 50219737#2 50219737#3 50219737#4 50219737#5 24764157#7 24764157#8 24764157#9 24764157#0 24764157#1 24764157#2 24764157#3 24764157#4 24764157#5 34888545#0 34888545#1 34888545#2 34888545#3 34888545#4"/>
    </vehicle>
    <vehicle id="97" depart="97.00">
        <route edges="32501920#0 -32501665#0 50220395#3 50220395#4 54733120#2 54733120#3 54733120#4 54733120#5 54733120#6 54733120#7 54733120#8 174532759#0 174532759#1 -233125838#4 -233125838#3 -233125856#4 -233125856#3 -233125792#0"/>
    </vehicle>
    <vehicle id="98" depart="98.00">
        <route edges="-39887293#0 -38284619#4 -38284619#3 32502142#0 233125812#0 233125812#1 233125859#1"/>
    </vehicle>
</routes>
