<?xml version="1.0" encoding="UTF-8"?>

<!-- generated on 06/24/18 02:07:03 by SUMO netconvert Version 0.30.0
<?xml version="1.0" encoding="UTF-8"?>

<configuration xmlns:xsi="http://www.w3.org/2001/XMLSchema-instance" xsi:noNamespaceSchemaLocation="http://sumo.dlr.de/xsd/netconvertConfiguration.xsd">

    <input>
        <osm-files value="map.osm"/>
    </input>

    <output>
        <output-file value="map.net.xml"/>
    </output>

    <projection>
        <proj.utm value="true"/>
    </projection>

</configuration>
-->

<net version="0.27" xmlns:xsi="http://www.w3.org/2001/XMLSchema-instance" xsi:noNamespaceSchemaLocation="http://sumo.dlr.de/xsd/net_file.xsd">

    <location netOffset="-326407.02,-3321818.94" convBoundary="0.00,0.00,2584.30,2555.06" origBoundary="31.199703,29.765951,31.296197,30.093036" projParameter="+proj=utm +zone=36 +ellps=WGS84 +datum=WGS84 +units=m +no_defs"/>

    <type id="highway.bridleway" priority="1" numLanes="1" speed="2.78" allow="pedestrian" oneway="1" width="2.00"/>
    <type id="highway.bus_guideway" priority="1" numLanes="1" speed="8.33" allow="bus" oneway="1"/>
    <type id="highway.cycleway" priority="1" numLanes="1" speed="5.56" allow="bicycle" oneway="0" width="1.00"/>
    <type id="highway.footway" priority="1" numLanes="1" speed="2.78" allow="pedestrian" oneway="1" width="2.00"/>
    <type id="highway.ford" priority="1" numLanes="1" speed="2.78" allow="army" oneway="0"/>
    <type id="highway.living_street" priority="3" numLanes="1" speed="2.78" disallow="tram rail_urban rail rail_electric ship" oneway="0"/>
    <type id="highway.motorway" priority="13" numLanes="2" speed="44.44" allow="private emergency authority army vip passenger hov taxi bus coach delivery truck trailer motorcycle evehicle custom1 custom2" oneway="1"/>
    <type id="highway.motorway_link" priority="12" numLanes="1" speed="22.22" allow="private emergency authority army vip passenger hov taxi bus coach delivery truck trailer motorcycle evehicle custom1 custom2" oneway="1"/>
    <type id="highway.path" priority="1" numLanes="1" speed="2.78" allow="bicycle pedestrian" oneway="1" width="2.00"/>
    <type id="highway.pedestrian" priority="1" numLanes="1" speed="2.78" allow="pedestrian" oneway="1" width="2.00"/>
    <type id="highway.primary" priority="9" numLanes="2" speed="27.78" disallow="tram rail_urban rail rail_electric ship" oneway="0"/>
    <type id="highway.primary_link" priority="8" numLanes="1" speed="22.22" disallow="tram rail_urban rail rail_electric ship" oneway="0"/>
    <type id="highway.raceway" priority="14" numLanes="2" speed="83.33" allow="vip" oneway="0"/>
    <type id="highway.residential" priority="4" numLanes="1" speed="13.89" disallow="tram rail_urban rail rail_electric ship" oneway="0"/>
    <type id="highway.secondary" priority="7" numLanes="2" speed="27.78" disallow="tram rail_urban rail rail_electric ship" oneway="0"/>
    <type id="highway.secondary_link" priority="6" numLanes="1" speed="22.22" disallow="tram rail_urban rail rail_electric ship" oneway="0"/>
    <type id="highway.service" priority="2" numLanes="1" speed="5.56" allow="delivery bicycle pedestrian" oneway="0"/>
    <type id="highway.services" priority="1" numLanes="1" speed="8.33" disallow="tram rail_urban rail rail_electric ship" oneway="0"/>
    <type id="highway.stairs" priority="1" numLanes="1" speed="1.39" allow="pedestrian" oneway="1" width="2.00"/>
    <type id="highway.step" priority="1" numLanes="1" speed="1.39" allow="pedestrian" oneway="1" width="2.00"/>
    <type id="highway.steps" priority="1" numLanes="1" speed="1.39" allow="pedestrian" oneway="1" width="2.00"/>
    <type id="highway.tertiary" priority="6" numLanes="1" speed="22.22" disallow="tram rail_urban rail rail_electric ship" oneway="0"/>
    <type id="highway.tertiary_link" priority="5" numLanes="1" speed="22.22" disallow="tram rail_urban rail rail_electric ship" oneway="0"/>
    <type id="highway.track" priority="1" numLanes="1" speed="5.56" disallow="tram rail_urban rail rail_electric ship" oneway="0"/>
    <type id="highway.trunk" priority="11" numLanes="2" speed="27.78" disallow="tram rail_urban rail rail_electric bicycle pedestrian ship" oneway="0"/>
    <type id="highway.trunk_link" priority="10" numLanes="1" speed="22.22" disallow="tram rail_urban rail rail_electric bicycle pedestrian ship" oneway="0"/>
    <type id="highway.unclassified" priority="5" numLanes="1" speed="13.89" disallow="tram rail_urban rail rail_electric ship" oneway="0"/>
    <type id="highway.unsurfaced" priority="1" numLanes="1" speed="8.33" disallow="tram rail_urban rail rail_electric ship" oneway="0"/>
    <type id="railway.light_rail" priority="15" numLanes="1" speed="27.78" allow="rail_urban" oneway="1"/>
    <type id="railway.preserved" priority="15" numLanes="1" speed="27.78" allow="rail" oneway="1"/>
    <type id="railway.rail" priority="15" numLanes="1" speed="83.33" allow="rail rail_electric" oneway="1"/>
    <type id="railway.subway" priority="15" numLanes="1" speed="27.78" allow="rail_urban" oneway="1"/>
    <type id="railway.tram" priority="15" numLanes="1" speed="13.89" allow="tram" oneway="1"/>

    <edge id=":1140160645_0" function="internal">
        <lane id=":1140160645_0_0" index="0" disallow="tram rail_urban rail rail_electric ship" speed="27.78" length="5.03" shape="1457.83,1444.36 1452.86,1443.64"/>
        <lane id=":1140160645_0_1" index="1" disallow="tram rail_urban rail rail_electric ship" speed="27.78" length="5.03" shape="1458.31,1441.10 1453.33,1440.37"/>
    </edge>
    <edge id=":1641623566_0" function="internal">
        <lane id=":1641623566_0_0" index="0" allow="delivery bicycle pedestrian" speed="5.56" length="6.16" shape="991.02,1323.79 989.11,1323.73 988.07,1324.29 987.90,1325.45 988.60,1327.23"/>
    </edge>
    <edge id=":1641623566_1" function="internal">
        <lane id=":1641623566_1_0" index="0" allow="delivery bicycle pedestrian" speed="5.56" length="4.82" shape="991.02,1323.79 989.92,1322.79 989.64,1321.91 990.17,1321.16 991.52,1320.53"/>
    </edge>
    <edge id=":1641623566_2" function="internal">
        <lane id=":1641623566_2_0" index="0" allow="delivery bicycle pedestrian" speed="5.56" length="8.49" shape="983.09,1320.88 985.58,1321.02 987.31,1320.71 989.03,1320.41 991.52,1320.53"/>
    </edge>
    <edge id=":1641623566_3" function="internal">
        <lane id=":1641623566_3_0" index="0" allow="delivery bicycle pedestrian" speed="5.56" length="8.59" shape="983.09,1320.88 984.28,1321.41 985.60,1322.65 987.03,1324.58 988.60,1327.23"/>
    </edge>
    <edge id=":1641623567_0" function="internal">
        <lane id=":1641623567_0_0" index="0" allow="delivery bicycle pedestrian" speed="5.56" length="8.80" shape="947.77,1313.38 950.26,1314.09 951.86,1314.95 953.46,1315.80 955.96,1316.47"/>
    </edge>
    <edge id=":1641623567_1" function="internal">
        <lane id=":1641623567_1_0" index="0" allow="delivery bicycle pedestrian" speed="5.56" length="4.82" shape="947.77,1313.38 948.85,1314.41 949.11,1315.29 948.56,1316.03 947.20,1316.63"/>
    </edge>
    <edge id=":1641623567_2" function="internal">
        <lane id=":1641623567_2_0" index="0" allow="delivery bicycle pedestrian" speed="5.56" length="6.34" shape="948.25,1320.65 949.63,1319.22 949.91,1318.07 949.10,1317.20 947.20,1316.63"/>
    </edge>
    <edge id=":1641623567_3" function="internal">
        <lane id=":1641623567_3_0" index="0" allow="delivery bicycle pedestrian" speed="5.56" length="8.92" shape="948.25,1320.65 950.80,1318.69 952.93,1317.34 954.65,1316.60 955.96,1316.47"/>
    </edge>
    <edge id=":1641623568_0" function="internal">
        <lane id=":1641623568_0_0" index="0" allow="delivery bicycle pedestrian" speed="5.56" length="10.95" shape="1004.32,1342.66 1003.68,1345.69 1002.85,1347.90 1001.96,1350.11 1001.18,1353.12"/>
    </edge>
    <edge id=":1641623568_1" function="internal">
        <lane id=":1641623568_1_0" index="0" allow="delivery bicycle pedestrian" speed="5.56" length="4.82" shape="1004.32,1342.66 1003.34,1343.78 1002.47,1344.08 1001.70,1343.56 1001.04,1342.23"/>
    </edge>
    <edge id=":1641623568_2" function="internal">
        <lane id=":1641623568_2_0" index="0" allow="delivery bicycle pedestrian" speed="5.56" length="7.51" shape="997.14,1342.96 998.54,1345.03 999.65,1345.60 1000.49,1344.67 1001.04,1342.23"/>
    </edge>
    <edge id=":1641623568_3" function="internal">
        <lane id=":1641623568_3_0" index="0" allow="delivery bicycle pedestrian" speed="5.56" length="11.31" shape="997.14,1342.96 998.91,1345.71 1000.40,1347.84 1001.27,1350.08 1001.18,1353.12"/>
    </edge>
    <edge id=":1641623569_0" function="internal">
        <lane id=":1641623569_0_0" index="0" allow="delivery bicycle pedestrian" speed="5.56" length="9.55" shape="979.38,1396.37 976.65,1395.69 974.88,1394.83 973.10,1394.00 970.36,1393.37"/>
    </edge>
    <edge id=":1641623569_1" function="internal">
        <lane id=":1641623569_1_0" index="0" allow="delivery bicycle pedestrian" speed="5.56" length="4.82" shape="979.38,1396.37 978.28,1395.37 978.00,1394.49 978.53,1393.74 979.88,1393.11"/>
    </edge>
    <edge id=":1641623569_2" function="internal">
        <lane id=":1641623569_2_0" index="0" allow="delivery bicycle pedestrian" speed="5.56" length="6.76" shape="978.95,1389.13 977.31,1390.56 976.92,1391.70 977.78,1392.55 979.88,1393.11"/>
    </edge>
    <edge id=":1641623569_3" function="internal">
        <lane id=":1641623569_3_0" index="0" allow="delivery bicycle pedestrian" speed="5.56" length="10.02" shape="978.95,1389.13 976.62,1391.04 974.96,1392.51 973.15,1393.36 970.36,1393.37"/>
    </edge>
    <edge id=":1641623570_0" function="internal">
        <lane id=":1641623570_0_0" index="0" allow="delivery bicycle pedestrian" speed="5.56" length="6.19" shape="925.13,1335.36 927.09,1335.65 928.75,1335.65 930.09,1335.36 931.12,1334.78"/>
    </edge>
    <edge id=":1641623570_1" function="internal">
        <lane id=":1641623570_1_0" index="0" allow="delivery bicycle pedestrian" speed="5.56" length="4.82" shape="925.13,1335.36 926.17,1336.42 926.42,1337.31 925.85,1338.03 924.47,1338.60"/>
    </edge>
    <edge id=":1641623570_2" function="internal">
        <lane id=":1641623570_2_0" index="0" allow="delivery bicycle pedestrian" speed="5.56" length="4.96" shape="926.95,1342.21 926.99,1340.86 926.58,1339.80 925.75,1339.05 924.47,1338.60"/>
    </edge>
    <edge id=":1641623570_3" function="internal">
        <lane id=":1641623570_3_0" index="0" allow="delivery bicycle pedestrian" speed="5.56" length="8.83" shape="926.95,1342.21 927.44,1339.66 928.07,1337.94 929.18,1336.50 931.12,1334.78"/>
    </edge>
    <edge id=":1641623571_0" function="internal">
        <lane id=":1641623571_0_0" index="0" allow="delivery bicycle pedestrian" speed="5.56" length="6.11" shape="925.52,1369.29 924.70,1368.46 923.50,1367.81 921.94,1367.34 920.01,1367.06"/>
    </edge>
    <edge id=":1641623571_1" function="internal">
        <lane id=":1641623571_1_0" index="0" allow="delivery bicycle pedestrian" speed="5.56" length="8.74" shape="925.52,1369.29 924.14,1367.14 923.49,1365.45 923.42,1363.64 923.78,1361.10"/>
    </edge>
    <edge id=":1641623571_2" function="internal">
        <lane id=":1641623571_2_0" index="0" allow="delivery bicycle pedestrian" speed="5.56" length="4.91" shape="920.31,1363.77 921.64,1363.71 922.66,1363.24 923.38,1362.37 923.78,1361.10"/>
    </edge>
    <edge id=":1641623571_3" function="internal">
        <lane id=":1641623571_3_0" index="0" allow="delivery bicycle pedestrian" speed="5.56" length="4.82" shape="920.31,1363.77 921.47,1364.70 921.80,1365.56 921.32,1366.35 920.01,1367.06"/>
    </edge>
    <edge id=":1641623573_0" function="internal">
        <lane id=":1641623573_0_0" index="0" allow="delivery bicycle pedestrian" speed="5.56" length="9.00" shape="941.62,1389.60 938.98,1389.51 937.15,1389.85 935.33,1390.19 932.68,1390.11"/>
    </edge>
    <edge id=":1641623573_1" function="internal">
        <lane id=":1641623573_1_0" index="0" allow="delivery bicycle pedestrian" speed="5.56" length="9.11" shape="941.62,1389.60 940.40,1389.09 938.93,1387.88 937.22,1385.94 935.25,1383.29"/>
    </edge>
    <edge id=":1641623573_2" function="internal">
        <lane id=":1641623573_2_0" index="0" allow="delivery bicycle pedestrian" speed="5.56" length="6.44" shape="933.10,1386.84 935.13,1386.86 936.17,1386.27 936.21,1385.09 935.25,1383.29"/>
    </edge>
    <edge id=":1641623573_3" function="internal">
        <lane id=":1641623573_3_0" index="0" allow="delivery bicycle pedestrian" speed="5.56" length="4.82" shape="933.10,1386.84 934.23,1387.81 934.53,1388.68 934.02,1389.45 932.68,1390.11"/>
    </edge>
    <edge id=":1641623575_0" function="internal">
        <lane id=":1641623575_0_0" index="0" allow="delivery bicycle pedestrian" speed="5.56" length="9.09" shape="997.20,1374.57 996.99,1377.23 997.27,1379.08 997.58,1380.93 997.47,1383.60"/>
    </edge>
    <edge id=":1641623575_1" function="internal">
        <lane id=":1641623575_1_0" index="0" allow="delivery bicycle pedestrian" speed="5.56" length="9.57" shape="997.20,1374.57 996.36,1377.09 995.04,1378.47 993.17,1379.49 990.69,1380.95"/>
    </edge>
    <edge id=":1641623575_2" function="internal">
        <lane id=":1641623575_2_0" index="0" allow="delivery bicycle pedestrian" speed="5.56" length="6.51" shape="994.20,1383.12 994.26,1381.06 993.70,1380.01 992.51,1379.98 990.69,1380.95"/>
    </edge>
    <edge id=":1641623575_3" function="internal">
        <lane id=":1641623575_3_0" index="0" allow="delivery bicycle pedestrian" speed="5.56" length="4.82" shape="994.20,1383.12 995.20,1382.02 996.07,1381.73 996.83,1382.26 997.47,1383.60"/>
    </edge>
    <edge id=":1852024825_0" function="internal">
        <lane id=":1852024825_0_0" index="0" disallow="tram rail_urban rail rail_electric ship" speed="25.00" length="3.39" shape="515.57,1470.52 513.16,1468.14"/>
    </edge>
    <edge id=":1852024825_1" function="internal">
        <lane id=":1852024825_1_0" index="0" disallow="tram rail_urban rail rail_electric ship" speed="27.78" length="3.00" shape="515.57,1470.52 512.70,1469.64"/>
        <lane id=":1852024825_1_1" index="1" disallow="tram rail_urban rail rail_electric ship" speed="27.78" length="3.00" shape="516.54,1467.36 513.67,1466.48"/>
    </edge>
    <edge id=":1852024828_0" function="internal">
        <lane id=":1852024828_0_0" index="0" disallow="tram rail_urban rail rail_electric ship" speed="25.00" length="33.33" shape="512.25,1449.16 517.77,1451.26 525.95,1454.74 535.03,1458.48 543.24,1461.39"/>
    </edge>
    <edge id=":1852024828_1" function="internal">
        <lane id=":1852024828_1_0" index="0" disallow="tram rail_urban rail rail_electric ship" speed="27.78" length="33.32" shape="511.17,1452.31 543.24,1461.39"/>
        <lane id=":1852024828_1_1" index="1" disallow="tram rail_urban rail rail_electric ship" speed="27.78" length="33.32" shape="510.26,1455.48 542.31,1464.55"/>
    </edge>
    <edge id=":2150316976_0" function="internal">
        <lane id=":2150316976_0_0" index="0" allow="delivery bicycle pedestrian" speed="5.56" length="8.96" shape="1046.80,1743.45 1045.92,1745.96 1045.37,1747.69 1044.91,1749.46 1044.30,1752.05"/>
    </edge>
    <edge id=":2150316976_1" function="internal">
        <lane id=":2150316976_1_0" index="0" allow="delivery bicycle pedestrian" speed="5.56" length="10.06" shape="1046.80,1743.45 1045.56,1745.76 1043.81,1747.22 1041.54,1747.83 1038.75,1747.58"/>
    </edge>
    <edge id=":2150316976_2" function="internal">
        <lane id=":2150316976_2_0" index="0" allow="delivery bicycle pedestrian" speed="5.56" length="4.82" shape="1046.80,1743.45 1045.61,1744.34 1044.69,1744.45 1044.05,1743.78 1043.69,1742.34"/>
    </edge>
    <edge id=":2150316976_3" function="internal">
        <lane id=":2150316976_3_0" index="0" allow="delivery bicycle pedestrian" speed="5.56" length="5.21" shape="1039.46,1744.36 1040.94,1744.51 1042.14,1744.22 1043.06,1743.49 1043.69,1742.34"/>
    </edge>
    <edge id=":2150316976_4" function="internal">
        <lane id=":2150316976_4_0" index="0" allow="delivery bicycle pedestrian" speed="5.56" length="10.38" shape="1039.46,1744.36 1042.12,1745.36 1043.82,1746.98 1044.54,1749.21 1044.30,1752.05"/>
    </edge>
    <edge id=":2150316976_5" function="internal">
        <lane id=":2150316976_5_0" index="0" allow="delivery bicycle pedestrian" speed="5.56" length="4.82" shape="1039.46,1744.36 1040.49,1745.43 1040.71,1746.33 1040.13,1747.05 1038.75,1747.58"/>
    </edge>
    <edge id=":2150316976_6" function="internal">
        <lane id=":2150316976_6_0" index="0" allow="delivery bicycle pedestrian" speed="5.56" length="5.01" shape="1041.08,1751.29 1041.20,1749.92 1040.85,1748.85 1040.03,1748.07 1038.75,1747.58"/>
    </edge>
    <edge id=":2150316976_7" function="internal">
        <lane id=":2150316976_7_0" index="0" allow="delivery bicycle pedestrian" speed="5.56" length="9.34" shape="1041.08,1751.29 1041.72,1748.60 1042.20,1746.76 1042.77,1744.95 1043.69,1742.34"/>
    </edge>
    <edge id=":2150316976_8" function="internal">
        <lane id=":2150316976_8_0" index="0" allow="delivery bicycle pedestrian" speed="5.56" length="4.82" shape="1041.08,1751.29 1042.17,1750.28 1043.06,1750.06 1043.77,1750.65 1044.30,1752.05"/>
    </edge>
    <edge id=":2150316981_0" function="internal">
        <lane id=":2150316981_0_0" index="0" allow="delivery bicycle pedestrian" speed="5.56" length="5.38" shape="1091.93,1692.98 1091.34,1691.94 1090.43,1691.13 1089.19,1690.55 1087.63,1690.20"/>
    </edge>
    <edge id=":2150316981_1" function="internal">
        <lane id=":2150316981_1_0" index="0" allow="delivery bicycle pedestrian" speed="5.56" length="8.74" shape="1091.93,1692.98 1091.13,1690.54 1090.89,1688.78 1091.10,1686.98 1091.69,1684.46"/>
    </edge>
    <edge id=":2150316981_2" function="internal">
        <lane id=":2150316981_2_0" index="0" allow="delivery bicycle pedestrian" speed="5.56" length="4.82" shape="1091.93,1692.98 1092.27,1691.53 1092.90,1690.85 1093.82,1690.95 1095.02,1691.82"/>
    </edge>
    <edge id=":2150316981_3" function="internal">
        <lane id=":2150316981_3_0" index="0" allow="delivery bicycle pedestrian" speed="5.56" length="6.79" shape="1094.90,1685.21 1094.44,1687.17 1094.24,1688.56 1094.41,1689.93 1095.02,1691.82"/>
    </edge>
    <edge id=":2150316981_4" function="internal">
        <lane id=":2150316981_4_0" index="0" allow="delivery bicycle pedestrian" speed="5.56" length="9.86" shape="1094.90,1685.21 1093.93,1687.70 1092.40,1689.36 1090.30,1690.19 1087.63,1690.20"/>
    </edge>
    <edge id=":2150316981_5" function="internal">
        <lane id=":2150316981_5_0" index="0" allow="delivery bicycle pedestrian" speed="5.56" length="4.82" shape="1094.90,1685.21 1093.81,1686.23 1092.92,1686.44 1092.21,1685.85 1091.69,1684.46"/>
    </edge>
    <edge id=":2150316981_6" function="internal">
        <lane id=":2150316981_6_0" index="0" allow="delivery bicycle pedestrian" speed="5.56" length="4.89" shape="1088.08,1686.93 1089.41,1686.93 1090.45,1686.52 1091.21,1685.69 1091.69,1684.46"/>
    </edge>
    <edge id=":2150316981_7" function="internal">
        <lane id=":2150316981_7_0" index="0" allow="delivery bicycle pedestrian" speed="5.56" length="8.94" shape="1088.08,1686.93 1090.54,1687.52 1092.51,1688.53 1094.01,1689.96 1095.02,1691.82"/>
    </edge>
    <edge id=":2150316981_8" function="internal">
        <lane id=":2150316981_8_0" index="0" allow="delivery bicycle pedestrian" speed="5.56" length="4.82" shape="1088.08,1686.93 1089.20,1687.92 1089.49,1688.79 1088.97,1689.55 1087.63,1690.20"/>
    </edge>
    <edge id=":2150316982_0" function="internal">
        <lane id=":2150316982_0_0" index="0" allow="delivery bicycle pedestrian" speed="5.56" length="5.28" shape="1071.55,1735.47 1070.25,1735.51 1069.18,1736.01 1068.34,1736.96 1067.72,1738.36"/>
    </edge>
    <edge id=":2150316982_1" function="internal">
        <lane id=":2150316982_1_0" index="0" allow="delivery bicycle pedestrian" speed="5.56" length="9.27" shape="1071.55,1735.47 1068.82,1735.10 1066.97,1734.77 1065.14,1734.29 1062.50,1733.51"/>
    </edge>
    <edge id=":2150316982_2" function="internal">
        <lane id=":2150316982_2_0" index="0" allow="delivery bicycle pedestrian" speed="5.56" length="4.82" shape="1071.55,1735.47 1070.42,1734.49 1070.12,1733.62 1070.63,1732.86 1071.97,1732.19"/>
    </edge>
    <edge id=":2150316982_3" function="internal">
        <lane id=":2150316982_3_0" index="0" allow="delivery bicycle pedestrian" speed="5.56" length="8.73" shape="1063.45,1730.35 1065.93,1731.08 1067.65,1731.53 1069.40,1731.85 1071.97,1732.19"/>
    </edge>
    <edge id=":2150316982_4" function="internal">
        <lane id=":2150316982_4_0" index="0" allow="delivery bicycle pedestrian" speed="5.56" length="10.38" shape="1063.45,1730.35 1066.03,1731.54 1067.61,1733.27 1068.17,1735.55 1067.72,1738.36"/>
    </edge>
    <edge id=":2150316982_5" function="internal">
        <lane id=":2150316982_5_0" index="0" allow="delivery bicycle pedestrian" speed="5.56" length="4.82" shape="1063.45,1730.35 1064.40,1731.49 1064.56,1732.40 1063.93,1733.07 1062.50,1733.51"/>
    </edge>
    <edge id=":2150316982_6" function="internal">
        <lane id=":2150316982_6_0" index="0" allow="delivery bicycle pedestrian" speed="5.56" length="5.01" shape="1064.57,1737.38 1064.78,1736.02 1064.51,1734.92 1063.75,1734.09 1062.50,1733.51"/>
    </edge>
    <edge id=":2150316982_7" function="internal">
        <lane id=":2150316982_7_0" index="0" allow="delivery bicycle pedestrian" speed="5.56" length="9.95" shape="1064.57,1737.38 1065.72,1734.84 1067.33,1733.14 1069.42,1732.25 1071.97,1732.19"/>
    </edge>
    <edge id=":2150316982_8" function="internal">
        <lane id=":2150316982_8_0" index="0" allow="delivery bicycle pedestrian" speed="5.56" length="4.82" shape="1064.57,1737.38 1065.72,1736.44 1066.63,1736.29 1067.30,1736.93 1067.72,1738.36"/>
    </edge>
    <edge id=":2150316984_0" function="internal">
        <lane id=":2150316984_0_0" index="0" allow="delivery bicycle pedestrian" speed="16.67" length="5.05" shape="1108.45,1641.32 1107.07,1641.14 1105.98,1641.45 1105.18,1642.26 1104.67,1643.55"/>
    </edge>
    <edge id=":2150316984_1" function="internal">
        <lane id=":2150316984_1_0" index="0" disallow="tram rail_urban rail rail_electric ship" speed="27.78" length="9.51" shape="1108.45,1641.32 1099.30,1638.76"/>
        <lane id=":2150316984_1_1" index="1" disallow="tram rail_urban rail rail_electric ship" speed="27.78" length="9.51" shape="1109.34,1638.14 1100.19,1635.58"/>
    </edge>
    <edge id=":2150316984_3" function="internal">
        <lane id=":2150316984_3_0" index="0" disallow="tram rail_urban rail rail_electric ship" speed="16.67" length="5.18" shape="1101.46,1642.80 1101.61,1641.34 1101.30,1640.18 1100.53,1639.32 1099.30,1638.76"/>
    </edge>
    <edge id=":2150316984_4" function="internal">
        <lane id=":2150316984_4_0" index="0" allow="delivery bicycle pedestrian" speed="5.56" length="4.82" shape="1101.46,1642.80 1102.55,1641.78 1103.44,1641.57 1104.15,1642.16 1104.67,1643.55"/>
    </edge>
    <edge id=":2150316987_0" function="internal">
        <lane id=":2150316987_0_0" index="0" allow="delivery bicycle pedestrian" speed="5.56" length="4.82" shape="1016.62,1743.02 1015.57,1741.98 1015.32,1741.09 1015.89,1740.36 1017.26,1739.79"/>
    </edge>
    <edge id=":2150531835_0" function="internal">
        <lane id=":2150531835_0_0" index="0" disallow="tram rail_urban rail rail_electric ship" speed="13.89" length="4.82" shape="967.84,1800.62 966.76,1799.59 966.50,1798.71 967.05,1797.97 968.41,1797.37"/>
    </edge>
    <edge id=":2158102933_0" function="internal">
        <lane id=":2158102933_0_0" index="0" allow="delivery bicycle pedestrian" speed="5.56" length="5.25" shape="1054.78,1731.21 1053.29,1730.96 1052.08,1731.18 1051.15,1731.88 1050.50,1733.06"/>
    </edge>
    <edge id=":2158102933_1" function="internal">
        <lane id=":2158102933_1_0" index="0" allow="delivery bicycle pedestrian" speed="5.56" length="10.63" shape="1054.78,1731.21 1052.11,1729.97 1050.54,1728.19 1050.05,1725.87 1050.66,1722.99"/>
    </edge>
    <edge id=":2158102933_2" function="internal">
        <lane id=":2158102933_2_0" index="0" allow="delivery bicycle pedestrian" speed="5.56" length="4.82" shape="1054.78,1731.21 1053.83,1730.06 1053.67,1729.15 1054.30,1728.48 1055.73,1728.04"/>
    </edge>
    <edge id=":2158102933_3" function="internal">
        <lane id=":2158102933_3_0" index="0" allow="delivery bicycle pedestrian" speed="5.56" length="5.07" shape="1053.76,1724.12 1053.47,1725.50 1053.70,1726.61 1054.45,1727.46 1055.73,1728.04"/>
    </edge>
    <edge id=":2158102933_4" function="internal">
        <lane id=":2158102933_4_0" index="0" allow="delivery bicycle pedestrian" speed="5.56" length="9.51" shape="1053.76,1724.12 1050.50,1733.06"/>
    </edge>
    <edge id=":2158102933_5" function="internal">
        <lane id=":2158102933_5_0" index="0" allow="delivery bicycle pedestrian" speed="5.56" length="4.82" shape="1053.76,1724.12 1052.56,1725.00 1051.64,1725.11 1051.01,1724.44 1050.66,1722.99"/>
    </edge>
    <edge id=":2158102933_6" function="internal">
        <lane id=":2158102933_6_0" index="0" allow="delivery bicycle pedestrian" speed="5.56" length="9.51" shape="1047.40,1731.92 1050.66,1722.99"/>
    </edge>
    <edge id=":2158102933_7" function="internal">
        <lane id=":2158102933_7_0" index="0" allow="delivery bicycle pedestrian" speed="5.56" length="10.35" shape="1047.40,1731.92 1048.69,1729.53 1050.51,1728.08 1052.85,1727.58 1055.73,1728.04"/>
    </edge>
    <edge id=":2158102933_8" function="internal">
        <lane id=":2158102933_8_0" index="0" allow="delivery bicycle pedestrian" speed="5.56" length="4.82" shape="1047.40,1731.92 1048.60,1731.05 1049.52,1730.94 1050.15,1731.61 1050.50,1733.06"/>
    </edge>
    <edge id=":2414602499_0" function="internal">
        <lane id=":2414602499_0_0" index="0" disallow="tram rail_urban rail rail_electric ship" speed="18.06" length="5.00" shape="342.56,1424.48 341.20,1424.31 340.11,1424.62 339.30,1425.41 338.76,1426.67"/>
    </edge>
    <edge id=":2414602499_1" function="internal">
        <lane id=":2414602499_1_0" index="0" disallow="tram rail_urban rail rail_electric ship" speed="22.22" length="9.50" shape="342.56,1424.48 333.40,1421.99"/>
    </edge>
    <edge id=":2414602499_2" function="internal">
        <lane id=":2414602499_2_0" index="0" disallow="tram rail_urban rail rail_electric ship" speed="18.06" length="5.02" shape="335.57,1425.82 335.74,1424.45 335.43,1423.35 334.65,1422.53 333.40,1421.99"/>
    </edge>
    <edge id=":2414602499_3" function="internal">
        <lane id=":2414602499_3_0" index="0" disallow="tram rail_urban rail rail_electric ship" speed="13.89" length="4.82" shape="335.57,1425.82 336.69,1424.83 337.59,1424.65 338.29,1425.26 338.76,1426.67"/>
    </edge>
    <edge id=":2414602502_0" function="internal">
        <lane id=":2414602502_0_0" index="0" disallow="tram rail_urban rail rail_electric ship" speed="18.06" length="5.12" shape="374.59,1433.18 373.24,1433.02 372.14,1433.35 371.30,1434.17 370.70,1435.48"/>
    </edge>
    <edge id=":2414602502_1" function="internal">
        <lane id=":2414602502_1_0" index="0" disallow="tram rail_urban rail rail_electric ship" speed="22.22" length="9.50" shape="374.59,1433.18 365.42,1430.69"/>
    </edge>
    <edge id=":2414602502_2" function="internal">
        <lane id=":2414602502_2_0" index="0" disallow="tram rail_urban rail rail_electric ship" speed="18.06" length="5.03" shape="367.55,1434.52 367.75,1433.15 367.47,1432.06 366.69,1431.24 365.42,1430.69"/>
    </edge>
    <edge id=":2414602502_3" function="internal">
        <lane id=":2414602502_3_0" index="0" disallow="tram rail_urban rail rail_electric ship" speed="13.89" length="4.82" shape="367.55,1434.52 368.69,1433.58 369.60,1433.42 370.27,1434.06 370.70,1435.48"/>
    </edge>
    <edge id=":2414602504_0" function="internal">
        <lane id=":2414602504_0_0" index="0" disallow="tram rail_urban rail rail_electric ship" speed="18.06" length="5.17" shape="465.65,1456.26 464.30,1456.14 463.21,1456.50 462.36,1457.36 461.77,1458.70"/>
    </edge>
    <edge id=":2414602504_1" function="internal">
        <lane id=":2414602504_1_0" index="0" disallow="tram rail_urban rail rail_electric ship" speed="22.22" length="9.51" shape="465.65,1456.26 456.43,1453.96"/>
    </edge>
    <edge id=":2414602504_2" function="internal">
        <lane id=":2414602504_2_0" index="0" disallow="tram rail_urban rail rail_electric ship" speed="18.06" length="5.05" shape="458.61,1457.77 458.81,1456.39 458.51,1455.29 457.72,1454.48 456.43,1453.96"/>
    </edge>
    <edge id=":2414602504_3" function="internal">
        <lane id=":2414602504_3_0" index="0" disallow="tram rail_urban rail rail_electric ship" speed="13.89" length="4.82" shape="458.61,1457.77 459.75,1456.81 460.65,1456.65 461.33,1457.28 461.77,1458.70"/>
    </edge>
    <edge id=":2414602506_0" function="internal">
        <lane id=":2414602506_0_0" index="0" disallow="tram rail_urban rail rail_electric ship" speed="18.06" length="5.12" shape="498.30,1464.42 496.94,1464.30 495.85,1464.65 495.02,1465.49 494.46,1466.81"/>
    </edge>
    <edge id=":2414602506_1" function="internal">
        <lane id=":2414602506_1_0" index="0" disallow="tram rail_urban rail rail_electric ship" speed="22.22" length="9.50" shape="498.30,1464.42 489.08,1462.12"/>
    </edge>
    <edge id=":2414602506_2" function="internal">
        <lane id=":2414602506_2_0" index="0" disallow="tram rail_urban rail rail_electric ship" speed="18.06" length="5.03" shape="491.28,1465.91 491.46,1464.54 491.15,1463.45 490.36,1462.64 489.08,1462.12"/>
    </edge>
    <edge id=":2414602506_3" function="internal">