<?xml version="1.0"?>
<!-- generated on 2018-06-24 02:11:32.945325 by $Id: randomTrips.py 23999 2017-04-21 09:04:47Z behrisch $
  options: -n map.net.xml -r map.rou.xml -e 100 -l
-->
<routes xmlns:xsi="http://www.w3.org/2001/XMLSchema-instance" xsi:noNamespaceSchemaLocation="http://sumo.dlr.de/xsd/routes_file.xsd">
    <trip id="0" depart="0.00" from="28856969#0" to="39887293#0"/>
    <trip id="1" depart="1.00" from="153834046#5" to="34888306"/>
    <trip id="2" depart="2.00" from="-30082378#0" to="32506890"/>
    <trip id="3" depart="3.00" from="28856894#1" to="-38284619#3"/>
    <trip id="4" depart="4.00" from="39887293#0" to="33903981"/>
    <trip id="5" depart="5.00" from="361945593" to="28856632#5"/>
    <trip id="6" depart="6.00" from="34888545#1" to="-32501945"/>
    <trip id="7" depart="7.00" from="233125859#4" to="28856632#5"/>
    <trip id="8" depart="8.00" from="-325018375#0" to="52739219"/>
    <trip id="9" depart="9.00" from="-233125813#2" to="28797826#3"/>
    <trip id="10" depart="10.00" from="34888301" to="34888545#5"/>
    <trip id="11" depart="11.00" from="28856868#0" to="28856981#5"/>
    <trip id="12" depart="12.00" from="-53188147#3" to="-34888330"/>
    <trip id="13" depart="13.00" from="52739219" to="-29420059#0"/>
    <trip id="14" depart="14.00" from="28856632#3" to="30066013#5"/>
    <trip id="15" depart="15.00" from="46970355" to="233125812#0"/>
    <trip id="16" depart="16.00" from="28856981#3" to="34888545#7"/>
    <trip id="17" depart="17.00" from="45416055" to="5096296#6"/>
    <trip id="18" depart="18.00" from="50069750#2" to="54733120#7"/>
    <trip id="19" depart="19.00" from="-38284619#4" to="38284647#8"/>
    <trip id="20" depart="20.00" from="45416055" to="50219737#4"/>
    <trip id="21" depart="21.00" from="28856969#1" to="153834046#8"/>
    <trip id="22" depart="22.00" from="-28856952#1" to="174532759#2"/>
    <trip id="23" depart="23.00" from="-39887293#0" to="32502142#2"/>
    <trip id="24" depart="24.00" from="-29420059#1" to="50219737#4"/>
    <trip id="25" depart="25.00" from="46970354" to="24893934#1"/>
    <trip id="26" depart="26.00" from="233125798#1" to="34888330"/>
    <trip id="27" depart="27.00" from="38285530#2" to="28856632#5"/>
    <trip id="28" depart="28.00" from="34888236" to="-46970334#2"/>
    <trip id="29" depart="29.00" from="-32501710" to="-46970283"/>
    <trip id="30" depart="30.00" from="5096296#1" to="-53188147#2"/>
    <trip id="31" depart="31.00" from="-28856969#0" to="34888409"/>
    <trip id="32" depart="32.00" from="30066013#0" to="-32502011#0"/>
    <trip id="33" depart="33.00" from="153834046#0" to="38284647#2"/>
    <trip id="34" depart="34.00" from="34888409" to="174532759#5"/>
    <trip id="35" depart="35.00" from="28856969#1" to="28797826#2"/>
    <trip id="36" depart="36.00" from="32501945" to="52739219"/>
    <trip id="37" depart="37.00" from="361945591" to="28856981#1"/>
    <trip id="38" depart="38.00" from="153834046#0" to="32502011#5"/>
    <trip id="39" depart="39.00" from="-53188147#3" to="233125812#0"/>
    <trip id="40" depart="40.00" from="38285530#4" to="24764150#2"/>
    <trip id="41" depart="41.00" from="46970355" to="32502011#1"/>
    <trip id="42" depart="42.00" from="556525473" to="-32501665#0"/>
    <trip id="43" depart="43.00" from="-30082378#0" to="24893934#0"/>
    <trip id="44" depart="44.00" from="38285530#3" to="-32502142#1"/>
    <trip id="45" depart="45.00" from="38284619#1" to="24764150#2"/>
    <trip id="46" depart="46.00" from="32502011#1" to="-32501665#0"/>
    <trip id="47" depart="47.00" from="50219737#0" to="32501674#1"/>
    <trip id="48" depart="48.00" from="-233125798#1" to="-29420059#0"/>
    <trip id="49" depart="49.00" from="-28856894#1" to="52739219"/>
    <trip id="50" depart="50.00" from="46970354" to="29420059#1"/>
    <trip id="51" depart="51.00" from="-46970283" to="28856969#0"/>
    <trip id="52" depart="52.00" from="54733120#7" to="-32506886"/>
    <trip id="53" depart="53.00" from="233125859#1" to="-29420059#0"/>
    <trip id="54" depart="54.00" from="361945591" to="33823689"/>
    <trip id="55" depart="55.00" from="50220395#2" to="-32501945"/>
    <trip id="56" depart="56.00" from="-46970283" to="-233125838#2"/>
    <trip id="57" depart="57.00" from="54733120#5" to="32502011#1"/>
    <trip id="58" depart="58.00" from="-233125856#3" to="-32502011#4"/>
    <trip id="59" depart="59.00" from="-28856981#5" to="38285531#1"/>
    <trip id="60" depart="60.00" from="52739219" to="30082378#0"/>
    <trip id="61" depart="61.00" from="38284624" to="50219737#1"/>
    <trip id="62" depart="62.00" from="28856776#3" to="233125812#1"/>
    <trip id="63" depart="63.00" from="-32502011#6" to="38284647#8"/>
    <trip id="64" depart="64.00" from="29420059#0" to="28856632#1"/>
    <trip id="65" depart="65.00" from="-41193583" to="32501920#2"/>
    <trip id="66" depart="66.00" from="556525473" to="28856797#0"/>
    <trip id="67" depart="67.00" from="-48981689#1" to="-32501665#0"/>
    <trip id="68" depart="68.00" from="30066013#3" to="174532759#5"/>
    <trip id="69" depart="69.00" from="34888301" to="233125838#4"/>
    <trip id="70" depart="70.00" from="233125838#3" to="32501920#5"/>
    <trip id="71" depart="71.00" from="32501674#1" to="45416055"/>
    <trip id="72" depart="72.00" from="34888245" to="-46970334#0"/>
    <trip id="73" depart="73.00" from="28971023" to="233125838#4"/>
    <trip id="74" depart="74.00" from="32502142#3" to="28797826#6"/>
    <trip id="75" depart="75.00" from="32502011#0" to="-51750110"/>
    <trip id="76" depart="76.00" from="34888330" to="-233125812#1"/>
    <trip id="77" depart="77.00" from="46970354" to="-29420059#0"/>
    <trip id="78" depart="78.00" from="-30082378#0" to="28797826#6"/>
    <trip id="79" depart="79.00" from="54731751" to="41193765"/>
    <trip id="80" depart="80.00" from="-28856981#5" to="-32501945"/>
    <trip id="81" depart="81.00" from="50219737#1" to="-32501945"/>
    <trip id="82" depart="82.00" from="-46970354" to="32501674#1"/>
    <trip id="83" depart="83.00" from="-32501665#0" to="153834046#4"/>
    <trip id="84" depart="84.00" from="50220395#1" to="-48981689#1"/>
    <trip id="85" depart="85.00" from="32502011#3" to="54733120#5"/>
    <trip id="86" depart="86.00" from="-53188147#1" to="510256968"/>
    <trip id="87" depart="87.00" from="5096296#7" to="48981707"/>
    <trip id="88" depart="88.00" from="24764150#2" to="153834046#6"/>
    <trip id="89" depart="89.00" from="46970334#0" to="45416055"/>
    <trip id="90" depart="90.00" from="-233125813#0" to="50219737#5"/>
    <trip id="91" depart="91.00" from="32501665#0" to="54733134#1"/>
    <trip id="92" depart="92.00" from="50220395#3" to="53188147#3"/>
    <trip id="93" depart="93.00" from="5096296#6" to="-28856894#1"/>
    <trip id="94" depart="94.00" from="50069750#0" to="34888545#4"/>
    <trip id="95" depart="95.00" from="-233125856#5" to="41194045"/>
    <trip id="96" depart="96.00" from="-53188147#3" to="-29420059#0"/>
    <trip id="97" depart="97.00" from="32501920#0" to="-233125792#0"/>
    <trip id="98" depart="98.00" from="-39887293#0" to="233125859#1"/>
    <trip id="99" depart="99.00" from="30066013#3" to="153834046#3"/>
</routes>
