<?xml version="1.0" encoding="UTF-8"?>

<!-- generated on 09/01/18 01:23:41 by SUMO duarouter Version 0.30.0
<?xml version="1.0" encoding="UTF-8"?>

<configuration xmlns:xsi="http://www.w3.org/2001/XMLSchema-instance" xsi:noNamespaceSchemaLocation="http://sumo.dlr.de/xsd/duarouterConfiguration.xsd">

    <input>
        <net-file value="map.net.xml"/>
        <trip-files value="trips.trips.xml"/>
    </input>

    <output>
        <output-file value="map.rou.xml"/>
    </output>

    <processing>
        <ignore-errors value="true"/>
    </processing>

    <time>
        <begin value="0"/>
        <end value="3600"/>
    </time>

    <report>
        <no-warnings value="true"/>
        <no-step-log value="true"/>
    </report>

</configuration>
-->

<routes xmlns:xsi="http://www.w3.org/2001/XMLSchema-instance" xsi:noNamespaceSchemaLocation="http://sumo.dlr.de/xsd/routes_file.xsd">
    <vehicle id="0" depart="0.00">
        <route edges="24986883#2 24986938#1 24986404#9 24986404#10 24986404#11 24986404#12 24986420#10 24986420#11 24986420#12 24986420#13 24986420#14 223013252#0 223013252#1 223013254 174548197#0 227102305#0 227102305#1 174550096#3 174550096#4 174550096#5 174550096#6 174550096#7 174550096#8 174550096#9 174550096#10 324479979 174550360#0 174550360#1 326374617#1 326374617#2 285476948#0 285476948#1 151416127 52042432#7 10945562 31542426#0 31542426#1 410375762#0 29181645#0 29181645#1 29181645#2 10945572#0 10945572#1 11138522#0 11138522#1 11138522#2 11138522#3 11138522#4 11138522#5 11138522#6 11138522#7 11138522#8 11138522#9 11138522#10 28718142 41196739#0 41196739#1 41196739#2 -28718017#3 -28717956#2 28717956#2"/>
    </vehicle>
    <vehicle id="1" depart="1.00">
        <route edges="-52497335#3 52497335#3 52497335#4 52497335#5 52497335#6 52497335#7 199151252#1 306000579#1 306000579#2 306000579#3 306000579#4 306000579#5 306000579#6 26096050 305992334#0 305992334#1 305992334#2 305992334#3 305992334#4 305992334#5 305992334#6 305992334#7 305992334#8 305992334#9 305992334#10 305992334#11 305992345#0 305992345#1 305992345#2 280739295#1 305992340 305992341#0 305992341#1 305992341#2 305992341#3 305992341#4 305992341#5 305992341#6 305992341#7 305992341#8 305980147 11138522#13 11138522#14 11138522#15 11138522#16 11138522#17 24657724#0 24657724#1 24657724#2 24657724#3 -540399564#2 -540399564#1 -540399564#0"/>
    </vehicle>
    <vehicle id="2" depart="2.00">
        <route edges="305775068#3 305775071#1 305775070#0 305775070#1 28833437 28833414#0 28833414#1 305775077#2 350936937#0 -28844976#2 -28844976#1 -28844976#0 -28844974 -305775081 305775073 305775074#0 29423160#1 52028787#0 52028787#1 52028787#2 52028787#3 52028787#4 52028787#5 52028787#6 52028787#7 52028787#8 46717813#6 46717813#0 46717813#1 46717813#2 29183957#0 29183957#1 29183957#2 29183957#3 29183913#0 29183913#1 29183974#0 29183974#1 29204379#0 29204379#1 29204379#2 29204379#3 29204379#4 29204379#5 53141725#0 53141725#1 53141725#2 54633232 54633233#0 54633233#1 54115099"/>
    </vehicle>
    <vehicle id="3" depart="3.00">
        <route edges="30082312 30082287#0 30082287#1 30082287#2 30082287#3 30082287#4 30082287#5 30082287#6 30082287#7 30082287#8 30082287#9 30082287#10 30082287#11 30082287#12 30082287#13 30082287#14 30082287#15 30082287#16 30082287#17 30082287#18 30082287#19 30082287#20 28970969#0 28970969#1 28970965 80678427 151201715 25007182#6 25007182#7 25007182#8 25007182#9 25007182#10 25007182#11 25007182#12 25007182#13 25007182#14 378291713 378291712#0 378291712#1 192588539#0 192588539#1 192588539#2 192588539#3 192588539#4 192588539#5 192588539#6 192588539#7 192588539#8 192588539#9 192588539#10 5096152#0 5096152#1 5096152#2 5096152#3 5096152#4 5096152#5 5096152#6 5096152#7 5096152#8 5096152#9 5096152#10 5096152#11 5096152#12 5096152#13 5096152#14 29185260"/>
    </vehicle>
    <vehicle id="4" depart="4.00">
        <route edges="33824418#0 33826110 28844604#1 28844604#2 -33824271 -33824264#0 513610537#4 513610537#5 513610537#6 305775071#4 305775071#5 305775071#0 305775071#1 305775070#0 305775070#1 28833437 28833414#0 28833414#1 305775077#2 350936937#0 -28844976#2 -28844976#1 -28844976#0 -28844974 -305775081 305775073 305775074#0 29423160#1 52028787#0 52028787#1 52028787#2 52028787#3 52028787#4 52028787#5 52028787#6 52028787#7 52028787#8 46717813#6 46717813#0 46717813#1 46717813#2 29183957#0 29183957#1 29183957#2 174548195#0 174548195#1 77599334#1 77599334#2 174547404#0 174547404#1 174547404#2 174547404#3 174547404#4 5096152#1 5096152#2 5096152#3 5096152#4 53843003 29185280#12 5096260#0 5096260#1 5096260#2 174547273 53837802#0 53837802#1 53837802#2 53837802#3 53837802#4 53837802#5 53837802#6 53837802#7 53837802#8 53837802#9 53837802#10 53837802#11 378292513#0 378292513#1 378292513#2 378291715#0 378291715#1 378291715#2 378291717#0 378291717#1 378291717#2 378291717#3 378291717#4 378291717#5 378291717#6 378291717#7 378291717#8 378291717#9 28970910 151201716 80678428#0 80678428#1 28200669#10 -47004292#3 -47004292#2 -47004292#1 -47004292#0 46418472#0 46418472#1 46418472#2 -29441358#0 29441482#0 29441482#1 29441482#2 29441482#3 29441482#4 29441482#5 29441482#6 29441482#7 29441482#8 29441482#9 29441482#10 46869220#1 46869220#2 46869220#3 46869220#4 46869220#5 46869220#6 46869220#7 46869220#8 46869220#9 -29441712"/>
    </vehicle>
    <vehicle id="7" depart="7.00">
        <route edges="151460225#0 151460225#1 151460225#2 151460225#3 151460225#4 387383323 390271181#2 390271181#3 390271181#4 390271181#5 387383282#0 387383282#1"/>
    </vehicle>
    <vehicle id="8" depart="8.00">
        <route edges="387383267 174629577#7 174629577#8 174629577#9 174629577#10 151460225#3 151460225#4 387383323 -390271181#1 -390271181#0 29185131#0 29185131#1 29185131#2 52041198 22947883 29185280#0 29185280#1 199231034#0 199231034#1 199231034#2 199231034#3 199231034#4 199231034#5 199231034#6 -233125799#9 -233125799#8 -233125799#7 -233125799#6 -233125799#5 -233125799#4 -233125799#3 -233125799#2 -233125799#1 -233125799#0 -199231018#20 -199231018#19 -199231018#18 -199231018#17 -199231018#16 -199231018#15 -199231018#14 -199231018#13 -199231028#2 -199231028#1 -199231021#1 -199231021#0 -233125836#0"/>
    </vehicle>
    <vehicle id="9" depart="9.00">
        <route edges="34888545#0 34888545#1 50219742#0 50219742#1 50219742#2 24749394#9 24749394#10 24749394#11 24749394#0 24749394#1 24749394#2 24749394#3 24749394#4 24749403#0 24749403#1 24749403#2 24749403#3 24749403#4 24749403#5 24749403#6 24749403#7 24749403#8 24749403#9 30595170#0 30595170#1 30595170#2 30595170#3 30595170#4 30595170#5 30595170#6 30595170#7 30595170#8 29222842#0 29222842#1 29222842#2 29222842#3 29222842#4 29222842#5 29222842#6 29222842#7 29222842#8 29222842#9 29222842#10 25007182#10 53837800 378291717#5 378291717#6 378291717#7 378291717#8 378291717#9 28970910 151201716 80678428#0 80678428#1 28200669#10 -47004292#3 -47004292#2 -47004292#1 -47004292#0 46418472#0 46418472#1 46418472#2 -29441358#0 30082287#0 69926778#0 69926778#1 69926778#2 69926778#3 69926778#4 69926778#5 233125652#0 233125652#1 233125701"/>
    </vehicle>
    <vehicle id="10" depart="10.00">
        <route edges="47517342#1 28789493#5 28789493#6 28789493#7 24943177#7 24943174#4 24943174#5 24943174#0 24943176#0 24943176#1 24943176#2 11138518#11 11138518#12 11138518#13 11138518#14 11138518#15 10873186#5 10873186#0 10873186#1 10873191#0 10873191#1 10873191#2 10945555#0 10945555#1 10945555#2 10945555#3 10945555#4 10945555#5 10945555#6 305980141#0 305980141#1 305980141#2 29181336#22 29181336#23 29181336#24 29181336#25 29181336#26 305863869 410375763#0 410375763#1 410375763#2 410375763#3 410375763#4 410375763#5 410375763#6 174548601 174550359#0 174550359#1 174547808#2 285476949#0 285476949#1 174550092 174550361#0 174550361#1 174550361#2 174550361#3 174550361#4 174550361#5 174550361#6 174550361#7 174550361#8 326046202 326046205#0 326046205#1 326374614#1 326374614#2 326374614#3 326374614#4 326374614#5 326374614#6 326374614#7 326374614#8 174547403 174547405 174547404#4 5096152#1 5096152#2 5096152#3 5096152#4 5096152#5 5096152#6 5096152#7 5096152#8 5096152#9 5096152#10 5096152#11 5096152#12 5096152#13 5096152#14 29185260 29185133#0 29185133#1 -30122625#6 -30122625#5 -387430030#5 388287600#0 388287600#1 388287600#2 388287600#3 388287600#4 -387430031#3"/>
    </vehicle>
    <vehicle id="11" depart="11.00">
        <route edges="97394504#1 97394504#2 97394504#3 97394504#4 305873962#1 305873962#2 11138519#6 11138519#7 11138519#8 11138519#9 11138519#10 5091217#0 5091217#1 5091217#2 5091217#3 5091217#4 5091217#5 5091217#6 29181336#14 29181336#15 29181336#16 29181336#17 29181336#18 29181336#19 29181336#20 29181336#21 29181336#22 29181336#23 29181336#24 29181336#25 29181336#26 305863869 410375763#0 410375763#1 410375763#2 410375763#3 410375763#4 410375763#5 410375763#6 174548601 174550359#0 174550359#1 174547808#2 285476949#0 285476949#1 174550092 174550361#0 174550361#1 174550361#2 174550361#3 174550361#4 174550361#5 174550361#6 174550361#7 174550361#8 326046202 326046205#0 326046205#1 326374614#1 326374614#2 326374614#3 326374614#4 326374614#5 326374614#6 326374614#7 326374614#8 174547403 174547405 174547404#4 5096152#1 5096152#2 5096152#3 5096152#4 5096152#5 5096152#6 5096152#7 5096152#8 5096152#9 5096152#10 5096152#11 5096152#12 5096152#13 5096152#14 29185260 29185133#0 256323332 -162664570#0 -29185131#1 -29185131#0 390271181#0 390271181#1 390271181#2 390271181#3 390271181#4 390271181#5 390271181#6 390271181#7 390271181#8 390271181#9 390271181#10 390271181#11 390271181#12 390271181#13 390271181#14 390271181#15 390271181#16 390271181#17 387257022"/>
    </vehicle>
    <vehicle id="12" depart="12.00">
        <route edges="32590792#1 -32590792#1 -32590792#0 29183957#2 174548195#0 174548195#1 77599334#1 77599334#2 174547404#0 174547404#1 324482857 174547807#1 324482856 174547648#0 174547648#1 174547649 174548600 305790195#1 305790195#2 174550096#0 174550096#1 174550096#2 174550096#3 174550096#4 174550096#5 174550096#6 174550096#7 174550096#8 174550096#9 174550096#10 324479979 174550360#0 174550360#1 326374617#1 326374617#2 285476948#0 285476948#1 151416127 52042432#7 10945562 31542426#0 31542426#1 410375762#0 29181645#0 29181645#1 29181645#2 10945572#0 10945572#1 11138522#0 11138522#1 11138522#2 11138522#3 11138522#4 11138522#5 24943065#0 24943065#1 24943065#2 24943065#3 24943065#4 24943065#5 24943065#6 24943065#7 24943065#8 305873961#0 305873961#1 305873961#2 305873961#3 305873961#4 97394506#0 97394506#1 97394506#2 97394506#3 28678785#7 28800557#4"/>
    </vehicle>
    <vehicle id="13" depart="13.00">
        <route edges="30681031#3 -30681031#3 30681047#1 30681047#2 30681047#3 -30681025#3 -30681025#2 -30682225#4 -30682271 -30682264#2 -30682264#1 -30681050#1 -30681050#0 305992341#1 305992341#2 305992341#3 305992341#4 305992341#5 305992341#6 305992341#7 305980142#3 305980142#4 97935979 11138522#8 11138522#9 11138522#10 11138522#11"/>
    </vehicle>
    <vehicle id="14" depart="14.00">
        <route edges="29990779 -29990779 28848326#1 28848373#0 28848373#1 25026332#0 25026332#1 25026332#2 25026227#5 25026227#6 25026227#7 25026227#8 151194838#0 151194838#1 151194838#2 151194838#3 151194838#4 151194838#5 151194838#6 151194842 151194840 151194845#0 151194845#1 151194845#2 28804979#0 28804979#1 28804979#2 28804979#3 28804979#4 28804979#5 28804979#6 28804979#7 24943093 28678894#0 28678894#1 28678894#2 28678894#3 28678894#4 24943125#0 24943125#1 24943125#2 24943125#3 24943125#4 24943125#5 10945555#0 10945555#1 10945555#2 10945555#3 10945555#4 10945555#5 10945555#6 305881044 97850342#0 97850342#1 30650560#2 30650560#3 30650560#4 30650560#5 30650560#6 30650560#7 220792667 350884008 350884043#0 350884043#1 350884043#2 350884043#3 29202504#1 29202504#2 29202504#3 29202504#4 29202504#5 29202504#6 29202504#7 192588539#2 53838060 53837802#7 53837802#8 53837802#9 53837802#10 53837802#11 378292513#0 378292513#1 378292513#2 378291715#0 378291715#1 378291715#2 378291717#0 378291717#1 378291717#2 378291717#3 378291717#4 378291717#5 378291717#6 378291717#7 378291717#8 378291717#9 28970910 151201716 80678428#0 80678428#1 28200669#10 -47004292#3 -47004292#2 -47004292#1 -47004292#0 46418472#0 46418472#1 46418472#2 -29441358#0 29441482#0 29441482#1 29441482#2 29441482#3 29441482#4 29441482#5 29441482#6 29441482#7 29441482#8 29441482#9 29441482#10 29441482#11 30072781#2"/>
    </vehicle>
    <vehicle id="15" depart="15.00">
        <route edges="199231027#3 199231018#14 199231018#15 -233125683#1 -233125683#0 -233125844#0 174546070#0 174546070#1 174546070#2 174546070#3 174546070#4 174546070#5 174545901#3 174545901#4 29202620#0 29202620#1 29202620#2 29202620#3 29202620#4 47005292#8 47005292#9 47005292#10 47005292#11 47005292#12 47005292#13 47005292#14 47005292#15 47005292#16 47005292#17 47005292#18 378291717#7 378291717#8 378291717#9 28970910 151201716 80678428#0 80678428#1 -28200669#9 -28200669#8 -28200669#7 -28200669#6 -28200669#5 -28200669#4 46418398#0 46418398#1 46418398#2 46418398#3 46418398#4 46418398#5 46418398#6 46418398#7 46418398#8 46418398#9 46418398#10 46418398#11 46418398#12 46418398#13 46418398#14 46418398#15 46418418#2 46418418#3"/>
    </vehicle>
    <vehicle id="16" depart="16.00">
        <route edges="162664570#1 -162664570#1 -162664570#0 29185131#2 52041198 22947883 29185280#0 29185280#1 29185280#2 29185280#3 29185280#4 29185280#5 29185280#6 29185280#7 29185280#8 29185280#9 29185280#10 29185280#11 29185280#12 5096260#0 5096260#1 5096260#2 174547273 53837802#0 53837802#1 53837802#2 53842098 192588539#8 192588539#9 25055007#0 174547407 174547406 305790195#0 305790195#1 305790195#2 174550096#0 174550096#1 174550096#2 174550096#3 174550096#4 174550096#5 174550096#6 174550096#7 174550096#8 174550096#9 174550096#10 324479979 174550360#0 174550360#1 326374617#1 326374617#2 285476948#0 285476948#1 151416127 52042432#7 10945562 31542426#0 31542426#1 410375762#0 29181645#0 29181645#1 29181645#2 10945572#0 10945572#1 11138522#0 11138522#1 11138522#2 11138522#3 11138522#4 11138522#5 24943065#0 24943065#1 24943065#2 24943065#3 24943065#4 24943065#5 24943065#6 24943065#7 24943065#8 305873961#0 305873961#1 305873961#2 305873961#3 305873961#4 28805444#0 28805444#1 28805444#2 28832645 53337258 555475832 35573380#1 35573380#2 28804982#0 28804982#1 28804982#2 28804982#3 28804982#4 34903911#0 34903915"/>
    </vehicle>
    <vehicle id="17" depart="17.00">
        <route edges="-30676181#1 -378645087#3 -378645087#2 -378645087#1 -378645087#0 29181336#20 29181336#21 29181336#22 29181336#23 29181336#24 29181336#25 410375760#0 410375760#1 410375762#0 410375762#1 410375762#2 10950988#0 10950988#1 10950988#2 50211775 192591565#3 4987233 30573953 285477760#2 285477760#3 285477760#4 24749289#0 24749289#1 24749354 33804465#0 33804465#1 24749394#1 24749394#2 24749394#3 24749394#4 24749403#0 24749403#1 24749403#2 24749403#3 24749403#4 24749403#5 24749403#6 28856411#0 28856411#1 28856411#2 28856411#3 28856411#4 28970577"/>
    </vehicle>
    <vehicle id="18" depart="18.00">
        <route edges="-271088237 271087582#1 271088242#0 271088242#1 271088242#2 174546462#8 174546462#9 174546462#10 174546462#11 174546462#12 174546462#13 174546462#14 174546462#15 174546462#16 174546462#17 174546462#18 174546462#19 163202510#0 163202510#1 163202510#2 163202510#3 53837802#1 53837802#2 53842098 192588539#8 192588539#9 25055007#0 25055007#1 25055007#2 25055007#3 25055007#4 25055007#5 25055007#6 50219744#10 50219744#11 48980326#0 48980326#1 48980326#2 46717813#4 24869131#0 24869131#1 24869131#2 25054804#0 110654247 110654253 110654237#0 -192646518 28844976#1 28844976#2 -350936937#0 40287036#0 110654250"/>
    </vehicle>
    <vehicle id="19" depart="19.00">
        <route edges="-30726435#0 -30726259#3 -30726259#2 -30726259#1 -30726259#0 -361257803#0 29181897#0 29181897#1 361257800 361257801 361257802 26096051 361435576#4 361435576#5 306010025 306010024 28845873#3 28845873#4 28845873#5 30650560#0 30650560#1 30650560#2 30650560#3 30650560#4 30650560#5 30650560#6 30650560#7 220792667 350884008 350884043#0 350884043#1 350884043#2 350884043#3 29202504#1 29202504#2 29202504#3 29202504#4 29202504#5 29202504#6 29202504#7 192588539#2 53838060 53837802#7 53837802#8 53837802#9 53837802#10 53837802#11 378292513#0 378292513#1 378292513#2 378291715#0 378291715#1 378291715#2 378291717#0 378291717#1 378291717#2 378291717#3 378291717#4 378291717#5 378291717#6 378291717#7 378291717#8 378291717#9 28970910 151201716 80678428#0 28970911 182628270#0 -28200669#11"/>
    </vehicle>
    <vehicle id="20" depart="20.00">
        <route edges="-331817789 331817789 29441243 29441260#0 29441260#1 46418473#0 46418473#1 46418473#2 46418473#3 46418473#4 46418473#5 46418473#6 46418473#7 46418473#8 46418473#9 46418473#10 -28200669#2 -28200669#1 -28200669#0 -387383324 -387383323 -151460225#4 -387383309#5 387383300"/>
    </vehicle>
    <vehicle id="21" depart="21.00">
        <route edges="28678700#1 28678700#2 28678696#3 28678696#4 5091214#9 5091214#10 28678719#0 28678719#1 24749268#3 24749268#4 24749268#5 24749268#6 24749268#7 24749268#8 24749268#9 24749268#10 332162765#5 332162765#6 332162765#7 332162765#8 332162765#9 332162765#10 28678907#0 28678907#1"/>
    </vehicle>
    <vehicle id="22" depart="22.00">
        <route edges="-252180547 252180547 -28888463#0 -152628433 -28863666 -28805452#6 -28805452#5 -28805452#4 -28805452#3 -28805452#2 35573499#0 35573499#1 35573499#2 28718825#10 28718825#11 11138519#0 11138519#1 11138519#2 11138519#3 11138519#4 11138519#5 11138519#6 11138519#7 11138519#8 11138519#9 11138519#10 5091217#0 5091217#1 5091217#2 5091217#3 5091217#4 5091217#5 5091217#6 29181336#14 29181336#15 29181336#16 29181336#17 29181336#18 29181336#19 29181336#20 29181336#21 29181336#22 29181336#23 29181336#24 29181336#25 29181336#26 305863869 410375763#0 410375763#1 410375763#2 410375763#3 410375763#4 410375763#5 410375763#6 174548601 174550359#0 174550359#1 174547808#2 285476949#0 285476949#1 174550092 174550361#0 174550361#1 174550361#2 174550361#3 174550361#4 174550361#5 174550361#6 174550361#7 174550361#8 326046202 326046205#0 326046205#1 326374614#1 326374614#2 326374614#3 174548598#0 174548598#1 174548289 48980326#2 46717813#4 46717813#5 46717813#6 46717813#0 201813961#0 201813961#1 201813961#2 201813961#3 201813961#4 201813961#5 -29184529#24 -29184529#23 -29184529#22 -29184529#21 -29184529#20 -29184529#19 -29184529#18 -29184529#17 -29184529#16 -29184529#15 -29184529#14 -29184529#13 -29184529#12 -29184529#11 -29184529#10 -29184529#9 -29184529#8 -29184529#7 -29184529#6 47734614#0 -47734614#0"/>
    </vehicle>
    <vehicle id="23" depart="23.00">
        <route edges="-387383288 -387383318#0 387259138#3 387259138#4 387259138#5 387259138#6 387259138#7 387259138#8 387383323 387383324 28200669#0 28200669#1 28200669#2 -46418473#10 -46418473#9 -46418473#8 -46418473#7 -46418473#6 -46418473#5 -46418473#4 -46418473#3 -46418473#2 -46418473#1 -46418473#0 -29441260#1 -29441260#0 -29441243 29441206#0 -29441358#1 -29441358#0 30082287#0 30082287#1 30082287#2 30082287#3 30082287#4 30082287#5 30082287#6 30082287#7 30082287#8 30082287#9 30082287#10 30082287#11 30082287#12 30082287#13 30082287#14 30082287#15 30082287#16 30082287#17 30082287#18 30082287#19 30082287#20 28970969#0 28799931#0 28799931#1 28799931#2 -29441645#32 233125794"/>
    </vehicle>
    <vehicle id="24" depart="24.00">
        <route edges="-69926778#0 30082287#1 30082287#2 30082287#3 30082287#4 30082287#5 30082287#6 30082287#7 30082287#8 30082287#9 30082287#10 30082287#11 30082287#12 30082287#13 30082287#14 30082287#15 30082287#16 30082287#17 30082287#18 30082287#19 30082287#20 28970969#0 28970969#1 28970965 80678427 151201715 25007182#6 25007182#7 25007182#8 25007182#9 25007182#10 25007182#11 25007182#12 25007182#13 25007182#14 378291713 378291712#0 378291712#1 192588539#0 192588539#1 192588539#2 192588539#3 192588539#4 192588539#5 192588539#6 192588539#7 192588539#8 192588539#9 192588539#10 5096152#0 5096152#1 5096152#2 5096152#3 5096152#4 5096152#5 5096152#6 5096152#7 5096152#8 5096152#9 5096152#10 32590352#0 32590352#1 32590352#2 32590352#3 32590364#0 32590364#1 32590747#1 32590747#2 32590747#3 201813961#10 -32590753#1 -32590753#0"/>
    </vehicle>
    <vehicle id="25" depart="25.00">
        <route edges="-244918284 46418473#3 46418473#4 46418473#5 46418473#6 46418473#7 46418473#8 46418473#9 46418473#10 -28200669#2 -28200669#1 320144924 201813961#20 201813961#21 201813961#22 199366032 25007182#2 25007182#3 25007182#4 25007182#5 25007182#6 25007182#7 25007182#8 25007182#9 25007182#10 25007182#11 25007182#12 25007182#13 25007182#14 378291713 378291712#0 378291712#1 192588539#0 24763764#0 24763764#1 24763764#2 24763764#3 24763764#4 24763764#5 24763764#6 24763764#7 29202503#0 29202503#1 29202503#2 29202503#3 29202503#4 28970701 350883997 432347126#0 432347126#1 22948117#0 22948117#1 22948117#2 22948117#3 22948117#4 22948117#5 22948117#6 10945557#0 10945557#1 10945559 305873964#0 305873964#1 29181613#1 29181613#2 29181613#3 29181613#4 29181613#5 29181613#6 10873186#3 10873186#4 10873186#5 10873186#0 24943131#0 24943131#1 24943131#2 24943131#3 24943139#0 24943139#1 24943139#2 28718874#0 28718874#1"/>
    </vehicle>
    <vehicle id="26" depart="26.00">
        <route edges="30677029#3 305992334#9 305992334#10 305992334#11 305992345#0 305992345#1 305992345#2 280739295#1 305992340 305992341#0 305992341#1 305992341#2 305992341#3 305992341#4 305992341#5 305992341#6 29181336#6 29181336#7 29181336#8 29181336#9 29181336#10 29181336#11 29181336#12 285476950#0 285476950#1 285476950#2 285476950#3 285476950#4 285476950#5 285476950#6 285476950#7 285476950#8 285476950#9 285476950#10 285476950#11 285476950#12 305784453 305784457 174547808#1 174547808#2 285476949#0 285476949#1 174550092 174550361#0 174550361#1 174550361#2 174550361#3 174550361#4 174550361#5 174550361#6 174550361#7 174550361#8 326046202 326046205#0 326046205#1 326374614#1 326374614#2 326374614#3 326374614#4 326374614#5 326374614#6 326374614#7 326374614#8 174547403 174547405 174547404#4 5096152#1 5096152#2 5096152#3 5096152#4 5096152#5 5096152#6 5096152#7 5096152#8 5096152#9 5096152#10 5096152#11 5096152#12 5096152#13 5096152#14 29185260 29185133#0 256323332 -162664570#0 -29185131#1 -29185131#0 390271181#0 390271181#1 387383324 -387383324"/>
    </vehicle>
    <vehicle id="27" depart="27.00">
        <route edges="387257021#0 -387383295#0 -390271181#14 -390271181#13 -390271181#12 -390271181#11 -390271181#10 -390271181#9 -390271181#8 -390271181#7 -390271181#6 -390271181#5 -390271181#4 -390271181#3 -390271181#2 -390271181#1 -390271181#0 29185131#0 29185131#1 29185131#2 52041198 22947883 29185280#0 53843623 5096152#13 5096152#14 5096152#15 5096152#16 25007400#27 25007400#28 25007400#29 25007400#30 25007400#31 25007400#32 25007400#33 25007400#34 25007400#35 25007400#36 25007400#37 25007400#38 25007400#39 25007400#40 25007400#41 46717813#2 46717813#3 46717813#4 24869131#0 24869131#1 24869131#2 25054804#0 110654247 110654253 110654237#0 110654237#1 110654259 52042430#2 305775068#0 305775068#1 305775068#2 305775068#3 305775071#1 305775070#0 305775070#1 42916738#0 42916738#1 42916738#2 33826077#0"/>
    </vehicle>
    <vehicle id="28" depart="28.00">
        <route edges="28844604#0 28844604#1 28844604#2 -33824271 -33824264#0 513610537#4 513610537#5 513610537#6 305775071#4 305775071#5 305775071#0 305775071#1 305775071#2 -28833372#6 -28833372#5 -28833372#4 -28833372#3 -28833372#2 -28833372#1 -28833372#0 46717614#0 46717614#1 46717614#2 46717614#3 46717614#4 46717614#5 46717614#6 46717614#7 46717614#8 46717614#9 305992334#0 305992334#1 30719002 28832925#7 199151254#0 30717339#0 30717470#1"/>
    </vehicle>
    <vehicle id="29" depart="29.00">
        <route edges="53842099#5 -378317506#2 -378317506#1 -53842395#2 -53842395#1 -53842395#0 53842394#2 53842394#3 53842096 192588539#5 192588539#6 53842097 53837802#4 53837802#5 53837802#6 53837802#7 53837802#8 53837802#9 53837802#10 53837802#11 378292513#0 378292513#1 378292513#2 378291715#0 378291715#1 378291715#2 378291717#0 378291717#1 378291717#2 378291717#3 378291717#4 378291717#5 378291717#6 378291717#7 39887312 25007182#8 378490716#0 378490716#1 378490716#2 378490716#3 378490716#4 378490716#5 378490716#6 -32131682#2 -32131682#1 -386764390#2 -183374165#3 183374548#0 183374548#1 32131942#5"/>
    </vehicle>
    <vehicle id="33" depart="33.00">
        <route edges="-271088245#1 271088258 174546462#14 174546462#15 174546462#16 174546462#17 174546462#18 174546462#19 163202510#0 174546832 174546830 174546681#1 161998368 305790195#0 305790195#1 305790195#2 174550096#0 174550096#1 174550096#2 174550096#3 174550096#4 174550096#5 174550096#6 174550096#7 174550096#8 174550096#9 174550096#10 324479979 174550360#0 174550360#1 326374617#1 326374617#2 285476948#0 285476948#1 151416127 52042432#7 10945562 31542426#0 31542426#1 410375762#0 29181645#0 29181645#1 305878361 510735948#1 510735948#2 29181613#0 29181613#1 29181613#2 29181613#3 29181613#4 29181613#5 29181613#6 10873186#3 192591564#0 192591564#1 192591564#2 192591564#3 24908307#0 24908307#1 24908307#2 24908307#3 24908307#4 24908307#5 24908307#6 24908307#7 24908307#8 24908307#9 47517444#0 47517444#1"/>
    </vehicle>
    <vehicle id="37" depart="37.00">
        <route edges="25007400#5 25007400#6 29202219#0 29202219#1 29202219#2 29202219#3 29202219#4 29202219#5 29202219#6 29202219#7 378291715#2 378291717#0 53837799 25007182#14 378291713 378291712#0 378291712#1 192588539#0 24763764#0 24763764#1 24763764#2 24763764#3 24763764#4 24763764#5 24763764#6 24763764#7 29202503#0 29202503#1 29202503#2 29202503#3 29202503#4 28970701 350883997 432347126#0 432347126#1 22948117#0 22948117#1 22948117#2 22948117#3 22948117#4 22948117#5 22948117#6 22948117#7 10945553 10945572#1 11138522#0 11138522#1 11138522#2 11138522#3 11138522#4 11138522#5 11138522#6 11138522#7 11138522#8 11138522#9 11138522#10 11138522#11 11138522#12 11138522#13 11138522#14 11138522#15 11138522#16 11138522#17 24657724#0 24657724#1 24657724#2 24657724#3 -540399564#2 -540399564#1 28800534#0 28800534#1 28800534#2 29990563#0 29990563#1 29990563#2 29990356#0"/>
    </vehicle>
    <vehicle id="38" depart="38.00">
        <route edges="-47517304#1 47517145#9 47517145#10 47517145#11 47517145#12 24908307#12 24943172#12 24943172#13 24943172#14 24943172#15 47058580#0 47058580#1 47058580#2 28678894#0 28678894#1 28678894#2 28678894#3 28678894#4 24943125#0 24943125#1 24943125#2 24943125#3 24943125#4 24943125#5 10945555#0 10945555#1 10945555#2 10945555#3 10945555#4 10945555#5 10945555#6 305980141#0 305980141#1 305980141#2 29181336#22 29181336#23 29181336#24 29181336#25 29181336#26 305863869 410375763#0 410375763#1 410375763#2 410375763#3 410375763#4 410375763#5 410375763#6 174548601 174550359#0 174550359#1 174547808#2 285476949#0 285476949#1 174550092 174550361#0 174550361#1 174550361#2 174550361#3 174550361#4 174550361#5 174550361#6 174550361#7 174550361#8 326046202 326046205#0 326046205#1 326374614#1 326374614#2 326374614#3 326374614#4 326374614#5 326374614#6 326374614#7 326374614#8 305790196 174534175#0 174546829 174546831 174546465#5 174546465#6 174546465#7 174546465#8 174546465#9 174546465#10 174546465#11 174546465#12 174546465#13 174546465#14 233125824#0 -233125824#0"/>
    </vehicle>
    <vehicle id="39" depart="39.00">
        <route edges="28739629#0 -24943183#1 -24943183#0 24943174#3 24943174#4 24943174#5 24943174#0 24943176#0 24943176#1 24943176#2 11138518#11 11138518#12 11138518#13 11138518#14 11138518#15 10873186#5 10873186#0 10873186#1 10873191#0 10873191#1 10873191#2 10945555#0 10945555#1 10945555#2 10945555#3 10945555#4 10945555#5 10945555#6 305881044 97850342#0 97850342#1 30650560#2 30650560#3 30650560#4 30650560#5 30650560#6 30650560#7 220792667 350884008 350884043#0 28970651#5 28970702#1 -28970702#1"/>
    </vehicle>
    <vehicle id="41" depart="41.00">
        <route edges="46847649 -46418398#8 -46418398#7 -46418398#6 -46418398#5 -46418398#4 -46418398#3 -46418398#2 -46418398#1 -46418398#0 -28200669#3 -28200669#2 -28200669#1 320144924 201813961#20 201813961#21 201813961#22 199366032 25007182#2 25007182#3 25007182#4 25007182#5 25007182#6 25007182#7 25007182#8 25007182#9 25007182#10 25007182#11 25007182#12 25007182#13 25007182#14 378291713 378291712#0 378291712#1 192588539#0 192588539#1 192588539#2 192588539#3 192588539#4 192588539#5 192588539#6 192588539#7 192588539#8 192588539#9 25055007#0 25055007#1 25055007#2 25055007#3 25055007#4 25055007#5 25055007#6 50219744#10 50219744#11 48980326#0 48980326#1 48980326#2 46717813#4 46717813#5 46717813#6 46717813#0 201813961#0 201813961#1 166492720#0 166492720#1 -32548680#3 -32548680#2 32573537#1 32573537#2 32573537#3 32573537#4 32573537#5 32573491#8 32573491#9 32573491#10 32573500#5 32573500#6 32573500#7 32573500#8 32573214#12 -32573214#12"/>
    </vehicle>
    <vehicle id="43" depart="43.00">
        <route edges="10873192#3 29181613#4 29181613#5 505207329 10873191#2 10945555#0 10945555#1 10945555#2 10945555#3 10945555#4 305878363#0 305863870#0 305863870#1 305863870#2 11138522#3 11138522#4 11138522#5 11138522#6 11138522#7 11138522#8 11138522#9 11138522#10 11138522#11 11138522#12 11138522#13 11138522#14 11138522#15 11138522#16 11138522#17 24657724#0 24657724#1 24657724#2 24657724#3 24657724#4 24657724#5 24657724#6 24657724#7 24657724#8 24657724#9 24657724#10 24657724#11 24657724#12 24657724#13 24657724#14 29990492#0 29990492#1 29990492#2 -29990387#2"/>
    </vehicle>
    <vehicle id="44" depart="44.00">