<?xml version="1.0"?>
<!-- generated on 2018-09-01 01:23:36.961552 by $Id: randomTrips.py 23999 2017-04-21 09:04:47Z behrisch $
  options: -n map.net.xml -r map.rou.xml e 100 -l
-->
<routes xmlns:xsi="http://www.w3.org/2001/XMLSchema-instance" xsi:noNamespaceSchemaLocation="http://sumo.dlr.de/xsd/routes_file.xsd">
    <trip id="0" depart="0.00" from="24986883#2" to="28717956#2"/>
    <trip id="1" depart="1.00" from="-52497335#3" to="-540399564#0"/>
    <trip id="2" depart="2.00" from="305775068#3" to="54115099"/>
    <trip id="3" depart="3.00" from="30082312" to="29185260"/>
    <trip id="4" depart="4.00" from="33824418#0" to="-29441712"/>
    <trip id="5" depart="5.00" from="285777312#0" to="-28718801#0"/>
    <trip id="6" depart="6.00" from="29204967#3" to="390997661#1"/>
    <trip id="7" depart="7.00" from="151460225#0" to="387383282#1"/>
    <trip id="8" depart="8.00" from="387383267" to="-233125836#0"/>
    <trip id="9" depart="9.00" from="34888545#0" to="233125701"/>
    <trip id="10" depart="10.00" from="47517342#1" to="-387430031#3"/>
    <trip id="11" depart="11.00" from="97394504#1" to="387257022"/>
    <trip id="12" depart="12.00" from="32590792#1" to="28800557#4"/>
    <trip id="13" depart="13.00" from="30681031#3" to="11138522#11"/>
    <trip id="14" depart="14.00" from="29990779" to="30072781#2"/>
    <trip id="15" depart="15.00" from="199231027#3" to="46418418#3"/>
    <trip id="16" depart="16.00" from="162664570#1" to="34903915"/>
    <trip id="17" depart="17.00" from="-30676181#1" to="28970577"/>
    <trip id="18" depart="18.00" from="-271088237" to="110654250"/>
    <trip id="19" depart="19.00" from="-30726435#0" to="-28200669#11"/>
    <trip id="20" depart="20.00" from="-331817789" to="387383300"/>
    <trip id="21" depart="21.00" from="28678700#1" to="28678907#1"/>
    <trip id="22" depart="22.00" from="-252180547" to="-47734614#0"/>
    <trip id="23" depart="23.00" from="-387383288" to="233125794"/>
    <trip id="24" depart="24.00" from="-69926778#0" to="-32590753#0"/>
    <trip id="25" depart="25.00" from="-244918284" to="28718874#1"/>
    <trip id="26" depart="26.00" from="30677029#3" to="-387383324"/>
    <trip id="27" depart="27.00" from="387257021#0" to="33826077#0"/>
    <trip id="28" depart="28.00" from="28844604#0" to="30717470#1"/>
    <trip id="29" depart="29.00" from="53842099#5" to="32131942#5"/>
    <trip id="30" depart="30.00" from="-29991965#1" to="5096296#1"/>
    <trip id="31" depart="31.00" from="285777312#0" to="28832511#0"/>
    <trip id="32" depart="32.00" from="233125726" to="390997661#1"/>
    <trip id="33" depart="33.00" from="-271088245#1" to="47517444#1"/>
    <trip id="34" depart="34.00" from="10873195#0" to="390997661#1"/>
    <trip id="35" depart="35.00" from="-387383312" to="271088256"/>
    <trip id="36" depart="36.00" from="-30682264#6" to="390997661#1"/>
    <trip id="37" depart="37.00" from="25007400#5" to="29990356#0"/>
    <trip id="38" depart="38.00" from="-47517304#1" to="-233125824#0"/>
    <trip id="39" depart="39.00" from="28739629#0" to="-28970702#1"/>
    <trip id="40" depart="40.00" from="-46695434#1" to="390997661#1"/>
    <trip id="41" depart="41.00" from="46847649" to="-32573214#12"/>
    <trip id="42" depart="42.00" from="-387383286" to="390997661#1"/>
    <trip id="43" depart="43.00" from="10873192#3" to="-29990387#2"/>
    <trip id="44" depart="44.00" from="25007400#36" to="28718825#2"/>
    <trip id="45" depart="45.00" from="-46418472#1" to="5091223#2"/>
    <trip id="46" depart="46.00" from="25026223#15" to="5091223#0"/>
    <trip id="47" depart="47.00" from="48925876" to="29308401#1"/>
    <trip id="48" depart="48.00" from="28200669#3" to="387430028#0"/>
    <trip id="49" depart="49.00" from="-32131120#2" to="-233125814#2"/>
    <trip id="50" depart="50.00" from="24943200#4" to="28831901#2"/>
    <trip id="51" depart="51.00" from="24869131#0" to="30681050#2"/>
    <trip id="52" depart="52.00" from="151460225#0" to="29441712"/>
    <trip id="53" depart="53.00" from="510202496#1" to="30082287#12"/>
    <trip id="54" depart="54.00" from="32131159#0" to="29202738#6"/>
    <trip id="55" depart="55.00" from="30726500#1" to="32178461"/>
    <trip id="56" depart="56.00" from="285476950#8" to="-28971004#2"/>
    <trip id="57" depart="57.00" from="285777312#0" to="30082287#6"/>
    <trip id="58" depart="58.00" from="53337181#0" to="378291717#1"/>
    <trip id="59" depart="59.00" from="326374616" to="28970651#9"/>
    <trip id="60" depart="60.00" from="33826013#3" to="29441592#9"/>
    <trip id="61" depart="61.00" from="387430125" to="233125807#0"/>
    <trip id="62" depart="62.00" from="4987193#1" to="52523042"/>
    <trip id="63" depart="63.00" from="47731131#2" to="-28718779#1"/>
    <trip id="64" depart="64.00" from="97394504#5" to="38314473#6"/>
    <trip id="65" depart="65.00" from="25054800#3" to="34008484#0"/>
    <trip id="66" depart="66.00" from="378291711#6" to="35573382#0"/>
    <trip id="67" depart="67.00" from="201813961#13" to="22948117#3"/>
    <trip id="68" depart="68.00" from="29204896#7" to="-361257803#5"/>
    <trip id="69" depart="69.00" from="-199151236#0" to="-233125836#0"/>
    <trip id="70" depart="70.00" from="-29441260#0" to="55054783#5"/>
    <trip id="71" depart="71.00" from="179054249#0" to="30122434#2"/>
    <trip id="72" depart="72.00" from="29204022#1" to="-34008654"/>
    <trip id="73" depart="73.00" from="30717496#0" to="-32573568#3"/>
    <trip id="74" depart="74.00" from="-32178573" to="201813961#12"/>
    <trip id="75" depart="75.00" from="-30681985#0" to="-30681047#4"/>
    <trip id="76" depart="76.00" from="387383320#0" to="28848135#3"/>
    <trip id="77" depart="77.00" from="199231021#1" to="30716714#4"/>
    <trip id="78" depart="78.00" from="-24986684#0" to="54359354#2"/>
    <trip id="79" depart="79.00" from="233125680" to="-28970576#3"/>
    <trip id="80" depart="80.00" from="-52596287#1" to="-47731267"/>
    <trip id="81" depart="81.00" from="-46847157#0" to="42916738#3"/>
    <trip id="82" depart="82.00" from="-30726767#1" to="-35573382#0"/>
    <trip id="83" depart="83.00" from="28831930#0" to="29441206#1"/>
    <trip id="84" depart="84.00" from="305873961#0" to="28856411#5"/>
    <trip id="85" depart="85.00" from="55054783#4" to="223013237#3"/>
    <trip id="86" depart="86.00" from="-32731303#1" to="29991947"/>
    <trip id="87" depart="87.00" from="52523037" to="-199151236#3"/>
    <trip id="88" depart="88.00" from="-32210908#0" to="11138522#15"/>
    <trip id="89" depart="89.00" from="387362052" to="22948117#8"/>
    <trip id="90" depart="90.00" from="-182628270#1" to="28970881#5"/>
    <trip id="91" depart="91.00" from="-48978038#0" to="-32108636#2"/>
    <trip id="92" depart="92.00" from="-378478180#0" to="-52596292#1"/>
    <trip id="93" depart="93.00" from="285777312#0" to="32573082#1"/>
    <trip id="94" depart="94.00" from="29419620#0" to="-233125646#9"/>
    <trip id="95" depart="95.00" from="28970881#3" to="29204896#8"/>
    <trip id="96" depart="96.00" from="285588473#1" to="510202496#1"/>
    <trip id="97" depart="97.00" from="30681029#3" to="-32506868"/>
    <trip id="98" depart="98.00" from="377860213" to="285777312#1"/>
    <trip id="99" depart="99.00" from="46969202#0" to="-387430135"/>
    <trip id="100" depart="100.00" from="285777312#0" to="-107538046#0"/>
    <trip id="101" depart="101.00" from="-387430128" to="233125729"/>
    <trip id="102" depart="102.00" from="24986835" to="29990384#5"/>
    <trip id="103" depart="103.00" from="-233125844#1" to="-52528138#2"/>
    <trip id="104" depart="104.00" from="34008750#0" to="-387383268"/>
    <trip id="105" depart="105.00" from="-34466840#1" to="24574603"/>
    <trip id="106" depart="106.00" from="28718739#3" to="34319395#0"/>
    <trip id="107" depart="107.00" from="-24943093" to="387383317#1"/>
    <trip id="108" depart="108.00" from="52042432#2" to="28850095#1"/>
    <trip id="109" depart="109.00" from="151460225#0" to="28848124#1"/>
    <trip id="110" depart="110.00" from="285777312#0" to="-32130304#0"/>
    <trip id="111" depart="111.00" from="30681023#5" to="30064804#2"/>
    <trip id="112" depart="112.00" from="46847731" to="28971004#1"/>
    <trip id="113" depart="113.00" from="206652508" to="-30072781#1"/>
    <trip id="114" depart="114.00" from="47517304#1" to="28709196#1"/>
    <trip id="115" depart="115.00" from="11138519#1" to="51552935"/>
    <trip id="116" depart="116.00" from="4987233" to="-46418472#0"/>
    <trip id="117" depart="117.00" from="-29184529#1" to="52035417"/>
    <trip id="118" depart="118.00" from="285777312#0" to="-271088251"/>
    <trip id="119" depart="119.00" from="11138522#11" to="28857136#0"/>
    <trip id="120" depart="120.00" from="47517463#2" to="233125691#5"/>
    <trip id="121" depart="121.00" from="24986612#5" to="-110244809"/>
    <trip id="122" depart="122.00" from="-30713823#2" to="151537810"/>
    <trip id="123" depart="123.00" from="30726259#4" to="410375763#1"/>
    <trip id="124" depart="124.00" from="28844604#0" to="28804982#0"/>
    <trip id="125" depart="125.00" from="53337158" to="34294757#3"/>
    <trip id="126" depart="126.00" from="-233125710" to="390997661#1"/>
    <trip id="127" depart="127.00" from="-24986755" to="32180205#0"/>
    <trip id="128" depart="128.00" from="29202504#5" to="285777312#1"/>
    <trip id="129" depart="129.00" from="-271087604#5" to="390997661#1"/>
    <trip id="130" depart="130.00" from="387383319" to="386764388#5"/>
    <trip id="131" depart="131.00" from="-233125680" to="199231019#0"/>
    <trip id="132" depart="132.00" from="54669199#3" to="-30123096#0"/>
    <trip id="133" depart="133.00" from="28970587#1" to="-34466841#2"/>
    <trip id="134" depart="134.00" from="-233125786#1" to="-28709161#5"/>
    <trip id="135" depart="135.00" from="387383312" to="32174800#2"/>
    <trip id="136" depart="136.00" from="34405206#1" to="245090724"/>
    <trip id="137" depart="137.00" from="28970576#2" to="5091223#0"/>
    <trip id="138" depart="138.00" from="28863681#2" to="28845873#1"/>
    <trip id="139" depart="139.00" from="46847649" to="48981113#2"/>
    <trip id="140" depart="140.00" from="-32573377#1" to="271096572#1"/>
    <trip id="141" depart="141.00" from="174547404#3" to="29031663#1"/>
    <trip id="142" depart="142.00" from="-33825995#1" to="-387396982"/>
    <trip id="143" depart="143.00" from="22948117#11" to="-29031562#1"/>
    <trip id="144" depart="144.00" from="151194845#0" to="390997661#1"/>
    <trip id="145" depart="145.00" from="34205634#2" to="46846822"/>
    <trip id="146" depart="146.00" from="32211071#1" to="46969762#0"/>
    <trip id="147" depart="147.00" from="29419619" to="-28718354#0"/>
    <trip id="148" depart="148.00" from="25055007#2" to="24943065#0"/>
    <trip id="149" depart="149.00" from="-271096563" to="220792674#1"/>
    <trip id="150" depart="150.00" from="-28678908#0" to="52497360#2"/>
    <trip id="151" depart="151.00" from="-233125805" to="-29182608#0"/>
    <trip id="152" depart="152.00" from="28678695#3" to="-47397700"/>
    <trip id="153" depart="153.00" from="285777312#0" to="-387362050"/>
    <trip id="154" depart="154.00" from="285777312#0" to="28845873#2"/>
    <trip id="155" depart="155.00" from="-46847766" to="271088243"/>
    <trip id="156" depart="156.00" from="54115099" to="-38314473#6"/>
    <trip id="157" depart="157.00" from="24986417#0" to="-32590714#0"/>
    <trip id="158" depart="158.00" from="24987319#0" to="285777312#1"/>
    <trip id="159" depart="159.00" from="46111723#0" to="-233125814#0"/>
    <trip id="160" depart="160.00" from="-151460225#4" to="30122625#3"/>
    <trip id="161" depart="161.00" from="32211267#1" to="387383302#0"/>
    <trip id="162" depart="162.00" from="233125789" to="32573612#2"/>
    <trip id="163" depart="163.00" from="285777312#0" to="-28863681#2"/>
    <trip id="164" depart="164.00" from="-30681052#4" to="166492685#0"/>
    <trip id="165" depart="165.00" from="-30707508" to="233125818#3"/>
    <trip id="166" depart="166.00" from="-32181814" to="52028787#4"/>
    <trip id="167" depart="167.00" from="-52528144#0" to="29441684"/>
    <trip id="168" depart="168.00" from="-539806143" to="32177515#2"/>
    <trip id="169" depart="169.00" from="285777312#0" to="51724864#0"/>
    <trip id="170" depart="170.00" from="233125700" to="25011285"/>
    <trip id="171" depart="171.00" from="220792674#6" to="33826087#2"/>
    <trip id="172" depart="172.00" from="-69927071" to="24749268#8"/>
    <trip id="173" depart="173.00" from="46695434#4" to="-29441243"/>
    <trip id="174" depart="174.00" from="32125123#1" to="510463649#1"/>
    <trip id="175" depart="175.00" from="-33825772#0" to="387430028#1"/>
    <trip id="176" depart="176.00" from="-52497357#1" to="256323329#1"/>
    <trip id="177" depart="177.00" from="-33824418#1" to="48370423#1"/>
    <trip id="178" depart="178.00" from="30726259#2" to="47732994"/>
    <trip id="179" depart="179.00" from="-52497383#1" to="-387383271#0"/>
    <trip id="180" depart="180.00" from="-29990454#4" to="48981761"/>
    <trip id="181" depart="181.00" from="199151242" to="29411123#2"/>
    <trip id="182" depart="182.00" from="26096724#0" to="5091214#11"/>
    <trip id="183" depart="183.00" from="-233125764" to="-30719401"/>
    <trip id="184" depart="184.00" from="24943172#15" to="-233125843#0"/>
    <trip id="185" depart="185.00" from="32573574#2" to="32130624#0"/>
    <trip id="186" depart="186.00" from="378490715#0" to="-201088302#4"/>
    <trip id="187" depart="187.00" from="387396988" to="174546465#10"/>
    <trip id="188" depart="188.00" from="387362046#1" to="52560328#1"/>
    <trip id="189" depart="189.00" from="-47004292#3" to="52596281#1"/>
    <trip id="190" depart="190.00" from="-233998544#1" to="24908307#0"/>
    <trip id="191" depart="191.00" from="-47734614#4" to="29441684"/>
    <trip id="192" depart="192.00" from="-29204131" to="525036646"/>
    <trip id="193" depart="193.00" from="-252180548#1" to="-233125844#1"/>
    <trip id="194" depart="194.00" from="52596286" to="28805444#0"/>
    <trip id="195" depart="195.00" from="525036647" to="-52596291#1"/>
    <trip id="196" depart="196.00" from="28845873#4" to="-28675959#6"/>
    <trip id="197" depart="197.00" from="30681130#2" to="-151460225#0"/>
    <trip id="198" depart="198.00" from="29441358#1" to="-28970723#0"/>
    <trip id="199" depart="199.00" from="-28863681#1" to="377856788"/>
    <trip id="200" depart="200.00" from="-233125665" to="387257025"/>
    <trip id="201" depart="201.00" from="-182628270#1" to="-28970661#1"/>
    <trip id="202" depart="202.00" from="-34903915" to="-33822739#1"/>
    <trip id="203" depart="203.00" from="223013245#0" to="378490716#8"/>
    <trip id="204" depart="204.00" from="151460225#0" to="-34466842#1"/>
    <trip id="205" depart="205.00" from="-30716714#4" to="29202738#6"/>
    <trip id="206" depart="206.00" from="24943065#2" to="52596300#1"/>
    <trip id="207" depart="207.00" from="-387257027" to="387383278"/>
    <trip id="208" depart="208.00" from="24943176#1" to="-52596292#0"/>
    <trip id="209" depart="209.00" from="-174548342" to="-518245924"/>
    <trip id="210" depart="210.00" from="-52560328#0" to="32130624#1"/>
    <trip id="211" depart="211.00" from="32125649#4" to="387257020"/>
    <trip id="212" depart="212.00" from="233125783#0" to="174547808#0"/>
    <trip id="213" depart="213.00" from="-47397700" to="30123300#7"/>
    <trip id="214" depart="214.00" from="31766771#1" to="390997661#1"/>
    <trip id="215" depart="215.00" from="-387430026#1" to="32590841"/>
    <trip id="216" depart="216.00" from="50219738" to="30681025#1"/>
    <trip id="217" depart="217.00" from="-32573163#2" to="-29991949#0"/>
    <trip id="218" depart="218.00" from="24986684#2" to="-32590576#1"/>
    <trip id="219" depart="219.00" from="199151250#0" to="32573389"/>
    <trip id="220" depart="220.00" from="-151537810" to="390997661#1"/>
    <trip id="221" depart="221.00" from="-29419638#6" to="33825709#1"/>
    <trip id="222" depart="222.00" from="-47734614#4" to="-32124808#2"/>
    <trip id="223" depart="223.00" from="-32108365#0" to="233125716"/>
    <trip id="224" depart="224.00" from="179054249#0" to="28970626#1"/>
    <trip id="225" depart="225.00" from="32210845#4" to="-32548680#1"/>
    <trip id="226" depart="226.00" from="-33825581#0" to="-233125839#1"/>
    <trip id="227" depart="227.00" from="233998544#1" to="47733115"/>
    <trip id="228" depart="228.00" from="201813961#20" to="32573377#1"/>
    <trip id="229" depart="229.00" from="-52414431#1" to="-28850095#0"/>
    <trip id="230" depart="230.00" from="28856560#1" to="332162765#8"/>
    <trip id="231" depart="231.00" from="52497361#3" to="25026332#2"/>
    <trip id="232" depart="232.00" from="54358701#3" to="-32129983#0"/>
    <trip id="233" depart="233.00" from="97394506#1" to="28789493#5"/>
    <trip id="234" depart="234.00" from="29441206#1" to="24657724#23"/>
    <trip id="235" depart="235.00" from="29990636#3" to="-30082287#18"/>
    <trip id="236" depart="236.00" from="-181647313" to="38284630#1"/>
    <trip id="237" depart="237.00" from="54329699#0" to="29202219#3"/>
    <trip id="238" depart="238.00" from="-233125762" to="396762654#1"/>
    <trip id="239" depart="239.00" from="285777312#0" to="24987012#0"/>
    <trip id="240" depart="240.00" from="32590470#0" to="-33823570#0"/>
    <trip id="241" depart="241.00" from="410375763#13" to="11138518#5"/>
    <trip id="242" depart="242.00" from="166492719#1" to="28857051"/>
    <trip id="243" depart="243.00" from="-38314473#6" to="387383276#0"/>
    <trip id="244" depart="244.00" from="97394514" to="-69926964"/>
    <trip id="245" depart="245.00" from="32132149#1" to="-245090722"/>
    <trip id="246" depart="246.00" from="-30681157#6" to="34003666"/>
    <trip id="247" depart="247.00" from="271088243" to="97394511"/>
    <trip id="248" depart="248.00" from="201813961#12" to="32210845#5"/>
    <trip id="249" depart="249.00" from="-199231020#0" to="199151238#2"/>
    <trip id="250" depart="250.00" from="-32590572" to="-29204055#1"/>
    <trip id="251" depart="251.00" from="32573652#1" to="-30123096#0"/>
    <trip id="252" depart="252.00" from="305878361" to="30676995#9"/>
    <trip id="253" depart="253.00" from="-29202583#1" to="48720448#10"/>
    <trip id="254" depart="254.00" from="25054800#0" to="32131120#6"/>
    <trip id="255" depart="255.00" from="-52596284#11" to="390997661#1"/>
    <trip id="256" depart="256.00" from="151539982#1" to="39917740#3"/>
    <trip id="257" depart="257.00" from="28970651#1" to="-378490720#0"/>
    <trip id="258" depart="258.00" from="201813961#1" to="32590576#0"/>
    <trip id="259" depart="259.00" from="29202700#2" to="-387383324"/>
    <trip id="260" depart="260.00" from="-387430065" to="161998552"/>
    <trip id="261" depart="261.00" from="-48981314" to="28844958#1"/>
    <trip id="262" depart="262.00" from="46111200" to="199151252#0"/>
    <trip id="263" depart="263.00" from="199151250#19" to="29222845#7"/>
    <trip id="264" depart="264.00" from="192591564#3" to="-35573382#0"/>
    <trip id="265" depart="265.00" from="410375763#11" to="-29031663#1"/>
    <trip id="266" depart="266.00" from="-174550091#0" to="29185260"/>
    <trip id="267" depart="267.00" from="-32132335" to="24986420#7"/>
    <trip id="268" depart="268.00" from="-30726277#0" to="-32573652#0"/>
    <trip id="269" depart="269.00" from="390271181#10" to="390997661#1"/>
    <trip id="270" depart="270.00" from="48981113#1" to="50219738"/>
    <trip id="271" depart="271.00" from="10873192#1" to="387362046#0"/>
    <trip id="272" depart="272.00" from="395880769#0" to="-46111708#0"/>
    <trip id="273" depart="273.00" from="350884044#1" to="-151460225#0"/>
    <trip id="274" depart="274.00" from="22948117#6" to="-33825803#0"/>
    <trip id="275" depart="275.00" from="-32502011" to="-233125766"/>
    <trip id="276" depart="276.00" from="24986535#0" to="-30122625#0"/>
    <trip id="277" depart="277.00" from="271088237" to="47517025#0"/>
    <trip id="278" depart="278.00" from="30681123#5" to="52035417"/>
    <trip id="279" depart="279.00" from="32128973#3" to="48978501#1"/>
    <trip id="280" depart="280.00" from="-151539982#3" to="28718647#9"/>
    <trip id="281" depart="281.00" from="387383288" to="48981068"/>
    <trip id="282" depart="282.00" from="29990422#5" to="29204022#1"/>
    <trip id="283" depart="283.00" from="28970881#3" to="-387257020"/>
    <trip id="284" depart="284.00" from="387257020" to="28826816#0"/>
    <trip id="285" depart="285.00" from="377856791#0" to="24574572#6"/>
    <trip id="286" depart="286.00" from="-47949453#1" to="25007400#36"/>
    <trip id="287" depart="287.00" from="228605180#6" to="166492685#2"/>
    <trip id="288" depart="288.00" from="174547404#1" to="-30072781#0"/>
    <trip id="289" depart="289.00" from="-48720448#12" to="555475832"/>
    <trip id="290" depart="290.00" from="-34003576" to="-32132334#1"/>
    <trip id="291" depart="291.00" from="52497380" to="28718874#1"/>
    <trip id="292" depart="292.00" from="30681123#0" to="52523054"/>
    <trip id="293" depart="293.00" from="-47731205" to="-28718779#1"/>
    <trip id="294" depart="294.00" from="285777312#0" to="-28970569#0"/>
    <trip id="295" depart="295.00" from="285777312#0" to="-29441645#26"/>
    <trip id="296" depart="296.00" from="396529565#5" to="46111338"/>
    <trip id="297" depart="297.00" from="28678696#0" to="350884019"/>
    <trip id="298" depart="298.00" from="47517145#0" to="28718276#0"/>
    <trip id="299" depart="299.00" from="199151238#0" to="306014289#0"/>
    <trip id="300" depart="300.00" from="350936933#3" to="32590765#0"/>
    <trip id="301" depart="301.00" from="-32573651#0" to="10950988#1"/>
    <trip id="302" depart="302.00" from="-29185131#0" to="33826063#1"/>
    <trip id="303" depart="303.00" from="199231015#0" to="48370644"/>
    <trip id="304" depart="304.00" from="-387383271#0" to="32125443#2"/>
    <trip id="305" depart="305.00" from="29990384#5" to="-30727360#3"/>
    <trip id="306" depart="306.00" from="45416056" to="28857136#0"/>
    <trip id="307" depart="307.00" from="285777312#0" to="256051732"/>
    <trip id="308" depart="308.00" from="-30082287#0" to="285777312#1"/>
    <trip id="309" depart="309.00" from="-350936940#0" to="199151238#0"/>
    <trip id="310" depart="310.00" from="30595171#7" to="-46111708#2"/>
    <trip id="311" depart="311.00" from="199231030#1" to="256051736"/>
    <trip id="312" depart="312.00" from="53337240" to="47004629#3"/>
    <trip id="313" depart="313.00" from="48718596#4" to="-28718389#0"/>
    <trip id="314" depart="314.00" from="48718600#1" to="123190929#1"/>
    <trip id="315" depart="315.00" from="25026332#0" to="52528133#0"/>
    <trip id="316" depart="316.00" from="28675959#1" to="51751697"/>
    <trip id="317" depart="317.00" from="-30122625#6" to="-32590841"/>
    <trip id="318" depart="318.00" from="-387393529" to="-46846557"/>
    <trip id="319" depart="319.00" from="-47731131#1" to="305784457"/>
    <trip id="320" depart="320.00" from="29990494#1" to="41721783"/>
    <trip id="321" depart="321.00" from="-32590352#3" to="589711108"/>
    <trip id="322" depart="322.00" from="-34294757#2" to="32131610#4"/>
    <trip id="323" depart="323.00" from="11138518#14" to="28855639#0"/>
    <trip id="324" depart="324.00" from="-30122434#2" to="-29441712"/>
    <trip id="325" depart="325.00" from="-29990388#1" to="350884043#3"/>
    <trip id="326" depart="326.00" from="34003303" to="-28718027#1"/>
    <trip id="327" depart="327.00" from="51528609#0" to="-32590731#0"/>
    <trip id="328" depart="328.00" from="285777312#0" to="30717193#3"/>
    <trip id="329" depart="329.00" from="-32590718#0" to="33826013#3"/>
    <trip id="330" depart="330.00" from="34319395#1" to="271088256"/>
    <trip id="331" depart="331.00" from="32174467#0" to="46418655"/>
    <trip id="332" depart="332.00" from="285777312#0" to="174550096#3"/>
    <trip id="333" depart="333.00" from="-233125805" to="110654253"/>
    <trip id="334" depart="334.00" from="28848922#2" to="-69927231"/>
    <trip id="335" depart="335.00" from="47516918#3" to="-28833498#1"/>
    <trip id="336" depart="336.00" from="-28678700#2" to="387257018#3"/>
    <trip id="337" depart="337.00" from="29991534#0" to="-32108636#2"/>
    <trip id="338" depart="338.00" from="220792674#2" to="233125824#1"/>
    <trip id="339" depart="339.00" from="285476950#3" to="387430107"/>
    <trip id="340" depart="340.00" from="378478177#3" to="-46718016#0"/>
    <trip id="341" depart="341.00" from="53337181#0" to="22948105"/>
    <trip id="342" depart="342.00" from="54115099" to="46695434#13"/>
    <trip id="343" depart="343.00" from="-52497381" to="-52596293"/>
    <trip id="344" depart="344.00" from="29441206#1" to="32573082#4"/>
    <trip id="345" depart="345.00" from="33822883#0" to="136787639"/>
    <trip id="346" depart="346.00" from="22948117#10" to="54329584#3"/>
    <trip id="347" depart="347.00" from="271088246#0" to="28678894#1"/>
    <trip id="348" depart="348.00" from="39917740#8" to="54358701#9"/>
    <trip id="349" depart="349.00" from="47731131#0" to="-28800550#1"/>
    <trip id="350" depart="350.00" from="390997661#0" to="34319383#1"/>
    <trip id="351" depart="351.00" from="28844604#0" to="52528135"/>
    <trip id="352" depart="352.00" from="285777312#0" to="-47732990"/>
    <trip id="353" depart="353.00" from="151460225#0" to="28718647#10"/>
    <trip id="354" depart="354.00" from="32125232#0" to="151539982#2"/>
    <trip id="355" depart="355.00" from="326374616" to="-387396982"/>
    <trip id="356" depart="356.00" from="-387363805" to="32128823"/>
    <trip id="357" depart="357.00" from="151460225#0" to="378478181#0"/>
    <trip id="358" depart="358.00" from="387430030#3" to="54359354#1"/>
    <trip id="359" depart="359.00" from="28970662#0" to="30968989"/>
    <trip id="360" depart="360.00" from="-199231034#0" to="-54329699#1"/>
    <trip id="361" depart="361.00" from="24749289#0" to="387430109#1"/>
    <trip id="362" depart="362.00" from="-32174977#0" to="28832221#10"/>
    <trip id="363" depart="363.00" from="34466840#1" to="52042432#2"/>
    <trip id="364" depart="364.00" from="-233125844#1" to="28848135#3"/>
    <trip id="365" depart="365.00" from="285777312#0" to="390997661#1"/>
    <trip id="366" depart="366.00" from="48980165#0" to="-46846931"/>
    <trip id="367" depart="367.00" from="69927071" to="28789490#3"/>
    <trip id="368" depart="368.00" from="305980142#4" to="-52497362#1"/>
    <trip id="369" depart="369.00" from="54329584#1" to="-34008766#1"/>
    <trip id="370" depart="370.00" from="29184529#0" to="54329659#6"/>
    <trip id="371" depart="371.00" from="46846808#4" to="151537811"/>
    <trip id="372" depart="372.00" from="387383316" to="-28857136#0"/>
    <trip id="373" depart="373.00" from="285777312#0" to="10950988#1"/>
    <trip id="374" depart="374.00" from="285777312#0" to="-29441260#0"/>
    <trip id="375" depart="375.00" from="-181651739" to="-29991949#0"/>
    <trip id="376" depart="376.00" from="54358701#3" to="10873192#3"/>
    <trip id="377" depart="377.00" from="54633235#3" to="-29031663#2"/>
    <trip id="378" depart="378.00" from="233125786#1" to="410375763#11"/>
    <trip id="379" depart="379.00" from="-48981113#1" to="25049195#1"/>
    <trip id="380" depart="380.00" from="28739642#0" to="32211267#0"/>
    <trip id="381" depart="381.00" from="-387383324" to="410375763#16"/>
    <trip id="382" depart="382.00" from="29991965#1" to="52497357#4"/>
    <trip id="383" depart="383.00" from="285777312#0" to="-29202583#0"/>
    <trip id="384" depart="384.00" from="285777312#0" to="-181651740"/>
    <trip id="385" depart="385.00" from="28849577#0" to="24943102"/>
    <trip id="386" depart="386.00" from="285777312#0" to="-30717194#7"/>
    <trip id="387" depart="387.00" from="285593512" to="46418472#0"/>
    <trip id="388" depart="388.00" from="-38314473#8" to="28970724#2"/>
    <trip id="389" depart="389.00" from="42917833#1" to="30713747#0"/>
    <trip id="390" depart="390.00" from="390997661#0" to="-271096567"/>
    <trip id="391" depart="391.00" from="30707596#1" to="233125714"/>
    <trip id="392" depart="392.00" from="46111200" to="30123300#7"/>
    <trip id="393" depart="393.00" from="192646502#0" to="-52518932#0"/>
    <trip id="394" depart="394.00" from="-29184529#2" to="378291380#6"/>
    <trip id="395" depart="395.00" from="-387257022" to="390997661#1"/>
    <trip id="396" depart="396.00" from="390997661#0" to="46718019"/>
    <trip id="397" depart="397.00" from="32131915" to="326374617#2"/>
    <trip id="398" depart="398.00" from="46845946#5" to="-28831730#0"/>
    <trip id="399" depart="399.00" from="151460225#0" to="-29361533#0"/>
    <trip id="400" depart="400.00" from="-387259144" to="-52528133#3"/>
    <trip id="401" depart="401.00" from="-52497381" to="-192646502#0"/>
    <trip id="402" depart="402.00" from="28200669#0" to="32590676#0"/>
    <trip id="403" depart="403.00" from="34404894" to="387383288"/>
    <trip id="404" depart="404.00" from="28718739#3" to="22948117#9"/>
    <trip id="405" depart="405.00" from="233125793" to="410375763#14"/>
    <trip id="406" depart="406.00" from="-33825780#0" to="-46718016#0"/>
    <trip id="407" depart="407.00" from="28856981#0" to="-34008516#0"/>
    <trip id="408" depart="408.00" from="29991961#0" to="29441684"/>
    <trip id="409" depart="409.00" from="42917925#1" to="-376233061"/>
    <trip id="410" depart="410.00" from="30414088" to="33823574"/>
    <trip id="411" depart="411.00" from="50211775" to="-52528125#3"/>
    <trip id="412" depart="412.00" from="32125649#0" to="47005292#2"/>
    <trip id="413" depart="413.00" from="-390271190#2" to="28888461"/>
    <trip id="414" depart="414.00" from="28845873#4" to="32177515#1"/>
    <trip id="415" depart="415.00" from="28845275#9" to="29990775#1"/>
    <trip id="416" depart="416.00" from="510202495" to="-271096555"/>
    <trip id="417" depart="417.00" from="387430128" to="201041066#0"/>